Program Version,EnergyPlus, Version 25.2.0-cf7368216c, YMD=2026.01.19 13:15
! <Version>, Version ID
 Version, 25.2
! <Timesteps per Hour>, #TimeSteps, Minutes per TimeStep {minutes}
 Timesteps per Hour,  4, 15
! <System Convergence Limits>, Minimum System TimeStep {minutes}, Max HVAC Iterations, Minimum Plant Iterations, Maximum Plant Iterations
 System Convergence Limits, 15, 5, 2, 8
! <Simulation Control>, Do Zone Sizing, Do System Sizing, Do Plant Sizing, Do Design Days, Do Weather Simulation, Do HVAC Sizing Simulation
 Simulation Control, Yes, Yes, Yes, No, Yes, No
! <Performance Precision Tradeoffs>, Use Coil Direct Simulation, Zone Radiant Exchange Algorithm, Override Mode, Number of Timestep In Hour, Force Euler Method, Minimum Number of Warmup Days, Force Suppress All Begin Environment Resets, Minimum System Timestep, MaxZoneTempDiff, MaxAllowedDelTemp
 Performance Precision Tradeoffs, No, ScriptF, Normal, 4, No, 1, No, 15.0, 0.300, 2.0000E-003
! <Output Reporting Tolerances>, Tolerance for Time Heating Setpoint Not Met, Tolerance for Zone Cooling Setpoint Not Met Time
 Output Reporting Tolerances, 0.556, 0.556, 
! <ScheduleTypeLimits>,Name,Limited? {Yes/No},Minimum,Maximum,Continuous? {Yes/No - Discrete}
ScheduleTypeLimits,ANY NUMBER,No,N/A,N/A,N/A
ScheduleTypeLimits,FRACTION,Yes,0.00,1.00,Yes
ScheduleTypeLimits,TEMPERATURE,Yes,-60.00,200.00,Yes
ScheduleTypeLimits,ON/OFF,Yes,0,1,No
ScheduleTypeLimits,CONTROL TYPE,Yes,0,4,No
ScheduleTypeLimits,HUMIDITY,Yes,10.00,90.00,Yes
ScheduleTypeLimits,NUMBER,No,N/A,N/A,N/A
! Schedule Details Report=Hourly =====================
! <DaySchedule - Hourly>,Name,ScheduleType,Interpolated {Average/Linear/No},Time (HH:MM) =>,01:00,02:00,03:00,04:00,05:00,06:00,07:00,08:00,09:00,10:00,11:00,12:00,13:00,14:00,15:00,16:00,17:00,18:00,19:00,20:00,21:00,22:00,23:00,24:00
! <WeekSchedule - Hourly>,Name,Sunday,Monday,Tuesday,Wednesday,Thursday,Friday,Saturday,Holiday,SummerDesignDay,WinterDesignDay,CustomDay1,CustomDay2
! <Schedule - Hourly>,Name,ScheduleType,Until Date 1,WeekSchedule 1,Until Date 2,WeekSchedule 2,Until Date 3,WeekSchedule 3,Until Date 4,WeekSchedule 4,Until Date 5,WeekSchedule 5,Until Date 6,WeekSchedule 6,Until Date 7,WeekSchedule 7,Until Date 8,WeekSchedule 8,Until Date 9,WeekSchedule 9,
DaySchedule - Hourly,MissingDaySchedule-0.0,,No,Values:,0.00,0.00,0.00,0.00,0.00,0.00,0.00,0.00,0.00,0.00,0.00,0.00,0.00,0.00,0.00,0.00,0.00,0.00,0.00,0.00,0.00,0.00,0.00,0.00
DaySchedule - Hourly,BLDG_LIGHT_SCH_dy_1,FRACTION,No,Values:,0.18,0.18,0.18,0.18,0.18,0.23,0.18,0.33,0.70,0.70,0.70,0.70,0.62,0.70,0.70,0.70,0.70,0.47,0.33,0.33,0.25,0.25,0.18,0.18
DaySchedule - Hourly,BLDG_LIGHT_SCH_dy_2,FRACTION,No,Values:,0.18,0.18,0.18,0.18,0.18,0.18,0.18,0.18,0.18,0.18,0.18,0.18,0.18,0.18,0.18,0.18,0.18,0.18,0.18,0.18,0.18,0.18,0.18,0.18
DaySchedule - Hourly,BLDG_LIGHT_SCH_dy_3,FRACTION,No,Values:,0.18,0.18,0.18,0.18,0.18,0.18,0.18,0.18,0.18,0.18,0.18,0.18,0.18,0.18,0.18,0.18,0.18,0.18,0.18,0.18,0.18,0.18,0.18,0.18
DaySchedule - Hourly,BLDG_LIGHT_SCH_dy_4,FRACTION,No,Values:,0.00,0.00,0.00,0.00,0.00,0.00,0.00,0.00,0.00,0.00,0.00,0.00,0.00,0.00,0.00,0.00,0.00,0.00,0.00,0.00,0.00,0.00,0.00,0.00
DaySchedule - Hourly,BLDG_LIGHT_SCH_dy_5,FRACTION,No,Values:,1.00,1.00,1.00,1.00,1.00,1.00,1.00,1.00,1.00,1.00,1.00,1.00,1.00,1.00,1.00,1.00,1.00,1.00,1.00,1.00,1.00,1.00,1.00,1.00
DaySchedule - Hourly,BLDG_LIGHT_SCH_dy_6,FRACTION,No,Values:,0.00,0.00,0.00,0.00,0.00,0.00,0.00,0.00,0.00,0.00,0.00,0.00,0.00,0.00,0.00,0.00,0.00,0.00,0.00,0.00,0.00,0.00,0.00,0.00
DaySchedule - Hourly,BLDG_LIGHT_SCH_dy_7,FRACTION,No,Values:,0.00,0.00,0.00,0.00,0.00,0.00,0.00,0.00,0.00,0.00,0.00,0.00,0.00,0.00,0.00,0.00,0.00,0.00,0.00,0.00,0.00,0.00,0.00,0.00
DaySchedule - Hourly,BLDG_EQUIP_SCH_dy_1,FRACTION,No,Values:,0.41,0.41,0.41,0.41,0.41,0.41,0.48,0.48,0.96,0.96,0.96,0.96,0.90,0.96,0.96,0.96,0.96,0.48,0.19,0.19,0.19,0.19,0.19,0.16
DaySchedule - Hourly,BLDG_EQUIP_SCH_dy_2,FRACTION,No,Values:,0.16,0.16,0.16,0.16,0.16,0.16,0.16,0.16,0.16,0.16,0.16,0.16,0.16,0.16,0.16,0.16,0.16,0.16,0.16,0.16,0.16,0.16,0.16,0.16
DaySchedule - Hourly,BLDG_EQUIP_SCH_dy_3,FRACTION,No,Values:,0.16,0.16,0.16,0.16,0.16,0.16,0.16,0.16,0.16,0.16,0.16,0.16,0.16,0.16,0.16,0.16,0.16,0.16,0.16,0.16,0.16,0.16,0.16,0.16
DaySchedule - Hourly,BLDG_EQUIP_SCH_dy_4,FRACTION,No,Values:,0.00,0.00,0.00,0.00,0.00,0.00,0.00,0.00,0.00,0.00,0.00,0.00,0.00,0.00,0.00,0.00,0.00,0.00,0.00,0.00,0.00,0.00,0.00,0.00
DaySchedule - Hourly,BLDG_EQUIP_SCH_dy_5,FRACTION,No,Values:,1.00,1.00,1.00,1.00,1.00,1.00,1.00,1.00,1.00,1.00,1.00,1.00,1.00,1.00,1.00,1.00,1.00,1.00,1.00,1.00,1.00,1.00,1.00,1.00
DaySchedule - Hourly,BLDG_EQUIP_SCH_dy_6,FRACTION,No,Values:,0.00,0.00,0.00,0.00,0.00,0.00,0.00,0.00,0.00,0.00,0.00,0.00,0.00,0.00,0.00,0.00,0.00,0.00,0.00,0.00,0.00,0.00,0.00,0.00
DaySchedule - Hourly,BLDG_EQUIP_SCH_dy_7,FRACTION,No,Values:,0.00,0.00,0.00,0.00,0.00,0.00,0.00,0.00,0.00,0.00,0.00,0.00,0.00,0.00,0.00,0.00,0.00,0.00,0.00,0.00,0.00,0.00,0.00,0.00
DaySchedule - Hourly,BLDG_OCC_SCH_dy_1,FRACTION,No,Values:,0.00,0.00,0.00,0.00,0.00,0.00,0.11,0.21,1.00,1.00,1.00,1.00,0.53,1.00,1.00,1.00,1.00,0.32,0.11,0.11,0.11,0.11,5.00E-002,0.00
DaySchedule - Hourly,BLDG_OCC_SCH_dy_2,FRACTION,No,Values:,0.00,0.00,0.00,0.00,0.00,0.00,0.00,0.00,0.00,0.00,0.00,0.00,0.00,0.00,0.00,0.00,0.00,0.00,0.00,0.00,0.00,0.00,0.00,0.00
DaySchedule - Hourly,BLDG_OCC_SCH_dy_3,FRACTION,No,Values:,0.00,0.00,0.00,0.00,0.00,0.00,0.00,0.00,0.00,0.00,0.00,0.00,0.00,0.00,0.00,0.00,0.00,0.00,0.00,0.00,0.00,0.00,0.00,0.00
DaySchedule - Hourly,BLDG_OCC_SCH_dy_4,FRACTION,No,Values:,0.00,0.00,0.00,0.00,0.00,0.00,0.00,0.00,0.00,0.00,0.00,0.00,0.00,0.00,0.00,0.00,0.00,0.00,0.00,0.00,0.00,0.00,0.00,0.00
DaySchedule - Hourly,BLDG_OCC_SCH_dy_5,FRACTION,No,Values:,1.00,1.00,1.00,1.00,1.00,1.00,1.00,1.00,1.00,1.00,1.00,1.00,1.00,1.00,1.00,1.00,1.00,1.00,1.00,1.00,1.00,1.00,1.00,1.00
DaySchedule - Hourly,BLDG_OCC_SCH_dy_6,FRACTION,No,Values:,0.00,0.00,0.00,0.00,0.00,0.00,0.00,0.00,0.00,0.00,0.00,0.00,0.00,0.00,0.00,0.00,0.00,0.00,0.00,0.00,0.00,0.00,0.00,0.00
DaySchedule - Hourly,BLDG_OCC_SCH_dy_7,FRACTION,No,Values:,0.00,0.00,0.00,0.00,0.00,0.00,0.00,0.00,0.00,0.00,0.00,0.00,0.00,0.00,0.00,0.00,0.00,0.00,0.00,0.00,0.00,0.00,0.00,0.00
DaySchedule - Hourly,BLDG_OCC_SCH_W_SB_dy_1,FRACTION,No,Values:,0.00,0.00,0.00,0.00,0.00,0.00,0.11,0.21,1.00,1.00,0.00,1.00,0.00,1.00,0.00,1.00,1.00,0.32,0.11,0.11,0.11,0.11,5.00E-002,0.00
DaySchedule - Hourly,BLDG_OCC_SCH_W_SB_dy_2,FRACTION,No,Values:,0.00,0.00,0.00,0.00,0.00,0.00,0.00,0.00,0.00,0.00,0.00,0.00,0.00,0.00,0.00,0.00,0.00,0.00,0.00,0.00,0.00,0.00,0.00,0.00
DaySchedule - Hourly,BLDG_OCC_SCH_W_SB_dy_3,FRACTION,No,Values:,0.00,0.00,0.00,0.00,0.00,0.00,0.00,0.00,0.00,0.00,0.00,0.00,0.00,0.00,0.00,0.00,0.00,0.00,0.00,0.00,0.00,0.00,0.00,0.00
DaySchedule - Hourly,BLDG_OCC_SCH_W_SB_dy_4,FRACTION,No,Values:,0.00,0.00,0.00,0.00,0.00,0.00,0.00,0.00,0.00,0.00,0.00,0.00,0.00,0.00,0.00,0.00,0.00,0.00,0.00,0.00,0.00,0.00,0.00,0.00
DaySchedule - Hourly,BLDG_OCC_SCH_W_SB_dy_5,FRACTION,No,Values:,1.00,1.00,1.00,1.00,1.00,1.00,1.00,1.00,1.00,1.00,1.00,1.00,1.00,1.00,1.00,1.00,1.00,1.00,1.00,1.00,1.00,1.00,1.00,1.00
DaySchedule - Hourly,BLDG_OCC_SCH_W_SB_dy_6,FRACTION,No,Values:,0.00,0.00,0.00,0.00,0.00,0.00,0.00,0.00,0.00,0.00,0.00,0.00,0.00,0.00,0.00,0.00,0.00,0.00,0.00,0.00,0.00,0.00,0.00,0.00
DaySchedule - Hourly,BLDG_OCC_SCH_W_SB_dy_7,FRACTION,No,Values:,0.00,0.00,0.00,0.00,0.00,0.00,0.00,0.00,0.00,0.00,0.00,0.00,0.00,0.00,0.00,0.00,0.00,0.00,0.00,0.00,0.00,0.00,0.00,0.00
DaySchedule - Hourly,BLDG_OCC_SCH_WO_SB_dy_1,FRACTION,No,Values:,0.00,0.00,0.00,0.00,0.00,0.00,0.11,0.21,1.00,1.00,1.00,1.00,0.61,1.00,1.00,1.00,1.00,0.32,0.11,0.11,0.11,0.11,5.00E-002,0.00
DaySchedule - Hourly,BLDG_OCC_SCH_WO_SB_dy_2,FRACTION,No,Values:,0.00,0.00,0.00,0.00,0.00,0.00,0.00,0.00,0.00,0.00,0.00,0.00,0.00,0.00,0.00,0.00,0.00,0.00,0.00,0.00,0.00,0.00,0.00,0.00
DaySchedule - Hourly,BLDG_OCC_SCH_WO_SB_dy_3,FRACTION,No,Values:,0.00,0.00,0.00,0.00,0.00,0.00,0.00,0.00,0.00,0.00,0.00,0.00,0.00,0.00,0.00,0.00,0.00,0.00,0.00,0.00,0.00,0.00,0.00,0.00
DaySchedule - Hourly,BLDG_OCC_SCH_WO_SB_dy_4,FRACTION,No,Values:,0.00,0.00,0.00,0.00,0.00,0.00,0.00,0.00,0.00,0.00,0.00,0.00,0.00,0.00,0.00,0.00,0.00,0.00,0.00,0.00,0.00,0.00,0.00,0.00
DaySchedule - Hourly,BLDG_OCC_SCH_WO_SB_dy_5,FRACTION,No,Values:,1.00,1.00,1.00,1.00,1.00,1.00,1.00,1.00,1.00,1.00,1.00,1.00,1.00,1.00,1.00,1.00,1.00,1.00,1.00,1.00,1.00,1.00,1.00,1.00
DaySchedule - Hourly,BLDG_OCC_SCH_WO_SB_dy_6,FRACTION,No,Values:,0.00,0.00,0.00,0.00,0.00,0.00,0.00,0.00,0.00,0.00,0.00,0.00,0.00,0.00,0.00,0.00,0.00,0.00,0.00,0.00,0.00,0.00,0.00,0.00
DaySchedule - Hourly,BLDG_OCC_SCH_WO_SB_dy_7,FRACTION,No,Values:,0.00,0.00,0.00,0.00,0.00,0.00,0.00,0.00,0.00,0.00,0.00,0.00,0.00,0.00,0.00,0.00,0.00,0.00,0.00,0.00,0.00,0.00,0.00,0.00
DaySchedule - Hourly,BINARY OCCUPANCY_dy_1,FRACTION,No,Values:,0.00,0.00,0.00,0.00,0.00,0.00,1.00,1.00,1.00,1.00,1.00,1.00,1.00,1.00,1.00,1.00,1.00,1.00,1.00,1.00,1.00,1.00,1.00,0.00
DaySchedule - Hourly,BINARY OCCUPANCY_dy_2,FRACTION,No,Values:,0.00,0.00,0.00,0.00,0.00,0.00,0.00,0.00,0.00,0.00,0.00,0.00,0.00,0.00,0.00,0.00,0.00,0.00,0.00,0.00,0.00,0.00,0.00,0.00
DaySchedule - Hourly,BINARY OCCUPANCY_dy_3,FRACTION,No,Values:,0.00,0.00,0.00,0.00,0.00,0.00,0.00,0.00,0.00,0.00,0.00,0.00,0.00,0.00,0.00,0.00,0.00,0.00,0.00,0.00,0.00,0.00,0.00,0.00
DaySchedule - Hourly,BINARY OCCUPANCY_dy_4,FRACTION,No,Values:,0.00,0.00,0.00,0.00,0.00,0.00,0.00,0.00,0.00,0.00,0.00,0.00,0.00,0.00,0.00,0.00,0.00,0.00,0.00,0.00,0.00,0.00,0.00,0.00
DaySchedule - Hourly,BINARY OCCUPANCY_dy_5,FRACTION,No,Values:,1.00,1.00,1.00,1.00,1.00,1.00,1.00,1.00,1.00,1.00,1.00,1.00,1.00,1.00,1.00,1.00,1.00,1.00,1.00,1.00,1.00,1.00,1.00,1.00
DaySchedule - Hourly,BINARY OCCUPANCY_dy_6,FRACTION,No,Values:,0.00,0.00,0.00,0.00,0.00,0.00,0.00,0.00,0.00,0.00,0.00,0.00,0.00,0.00,0.00,0.00,0.00,0.00,0.00,0.00,0.00,0.00,0.00,0.00
DaySchedule - Hourly,BINARY OCCUPANCY_dy_7,FRACTION,No,Values:,0.00,0.00,0.00,0.00,0.00,0.00,0.00,0.00,0.00,0.00,0.00,0.00,0.00,0.00,0.00,0.00,0.00,0.00,0.00,0.00,0.00,0.00,0.00,0.00
DaySchedule - Hourly,INFIL_QUARTER_ON_SCH_dy_1,FRACTION,No,Values:,1.00,1.00,1.00,1.00,1.00,1.00,1.00,0.25,0.25,0.25,0.25,0.25,0.25,0.25,0.25,0.25,0.25,0.25,0.25,1.00,1.00,1.00,1.00,1.00
DaySchedule - Hourly,INFIL_QUARTER_ON_SCH_dy_2,FRACTION,No,Values:,1.00,1.00,1.00,1.00,1.00,1.00,1.00,0.25,0.25,0.25,0.25,0.25,0.25,0.25,0.25,0.25,0.25,0.25,1.00,1.00,1.00,1.00,1.00,1.00
DaySchedule - Hourly,INFIL_QUARTER_ON_SCH_dy_3,FRACTION,No,Values:,1.00,1.00,1.00,1.00,1.00,1.00,1.00,1.00,1.00,1.00,1.00,1.00,1.00,1.00,1.00,1.00,1.00,1.00,1.00,1.00,1.00,1.00,1.00,1.00
DaySchedule - Hourly,INFIL_DOOR_OPENING_SCH_dy_1,FRACTION,No,Values:,0.00,0.00,0.00,0.00,0.00,0.00,0.13,1.00,0.13,0.13,0.13,0.13,1.00,0.13,0.13,0.13,0.13,1.00,0.13,0.00,0.00,0.00,0.00,0.00
DaySchedule - Hourly,INFIL_DOOR_OPENING_SCH_dy_2,FRACTION,No,Values:,0.00,0.00,0.00,0.00,0.00,0.00,0.00,0.00,0.00,0.00,0.00,0.00,0.00,0.00,0.00,0.00,0.00,0.00,0.00,0.00,0.00,0.00,0.00,0.00
DaySchedule - Hourly,BLDG_SWH_SCH_dy_1,FRACTION,No,Values:,0.00,0.00,0.00,0.00,0.00,0.00,0.00,0.27,0.55,0.64,0.64,0.82,1.00,0.91,0.55,0.55,0.73,0.37,0.37,0.18,0.27,9.00E-002,0.00,0.00
DaySchedule - Hourly,BLDG_SWH_SCH_dy_2,FRACTION,No,Values:,0.00,0.00,0.00,0.00,0.00,0.00,0.00,0.00,0.00,0.00,0.00,0.00,0.00,0.00,0.00,0.00,0.00,0.00,0.00,0.00,0.00,0.00,0.00,0.00
DaySchedule - Hourly,BLDG_SWH_SCH_dy_3,FRACTION,No,Values:,0.00,0.00,0.00,0.00,0.00,0.00,0.00,0.00,0.00,0.00,0.00,0.00,0.00,0.00,0.00,0.00,0.00,0.00,0.00,0.00,0.00,0.00,0.00,0.00
DaySchedule - Hourly,BLDG_SWH_SCH_dy_4,FRACTION,No,Values:,0.00,0.00,0.00,0.00,0.00,0.00,0.00,0.27,0.55,0.64,0.64,0.82,1.00,0.91,0.55,0.55,0.73,0.37,0.37,0.18,0.27,9.00E-002,0.00,0.00
DaySchedule - Hourly,BLDG_SWH_SCH_dy_5,FRACTION,No,Values:,0.00,0.00,0.00,0.00,0.00,0.00,0.00,0.27,0.55,0.64,0.64,0.82,1.00,0.91,0.55,0.55,0.73,0.37,0.37,0.18,0.27,9.00E-002,0.00,0.00
DaySchedule - Hourly,BLDG_SWH_SCH_dy_6,FRACTION,No,Values:,0.00,0.00,0.00,0.00,0.00,0.00,0.00,0.00,0.00,0.00,0.00,0.00,0.00,0.00,0.00,0.00,0.00,0.00,0.00,0.00,0.00,0.00,0.00,0.00
DaySchedule - Hourly,BLDG_SWH_SCH_dy_7,FRACTION,No,Values:,0.00,0.00,0.00,0.00,0.00,0.00,0.00,0.00,0.00,0.00,0.00,0.00,0.00,0.00,0.00,0.00,0.00,0.00,0.00,0.00,0.00,0.00,0.00,0.00
DaySchedule - Hourly,ALWAYS_ON_dy_1,FRACTION,No,Values:,1.00,1.00,1.00,1.00,1.00,1.00,1.00,1.00,1.00,1.00,1.00,1.00,1.00,1.00,1.00,1.00,1.00,1.00,1.00,1.00,1.00,1.00,1.00,1.00
DaySchedule - Hourly,EXTERIOR_LGT_ALWAYS_ON_dy_1,FRACTION,No,Values:,1.00,1.00,1.00,1.00,1.00,1.00,1.00,1.00,1.00,1.00,1.00,1.00,1.00,1.00,1.00,1.00,1.00,1.00,1.00,1.00,1.00,1.00,1.00,1.00
DaySchedule - Hourly,EXTERIOR_LGT_189_1_dy_1,FRACTION,No,Values:,0.50,0.50,0.50,0.50,0.50,0.50,0.50,0.50,0.50,1.00,1.00,1.00,1.00,1.00,1.00,1.00,1.00,1.00,1.00,1.00,1.00,1.00,1.00,0.50
DaySchedule - Hourly,EXTERIOR_LGT_189_1_dy_2,FRACTION,No,Values:,0.50,0.50,0.50,0.50,0.50,0.50,0.50,0.50,0.50,0.50,0.50,0.50,0.50,0.50,0.50,0.50,0.50,0.50,0.50,0.50,0.50,0.50,0.50,0.50
DaySchedule - Hourly,EXTERIOR_LGT_189_1_dy_3,FRACTION,No,Values:,0.50,0.50,0.50,0.50,0.50,0.50,0.50,0.50,0.50,0.50,0.50,0.50,0.50,0.50,0.50,0.50,0.50,0.50,0.50,0.50,0.50,0.50,0.50,0.50
DaySchedule - Hourly,ALWAYS_OFF_dy_1,FRACTION,No,Values:,0.00,0.00,0.00,0.00,0.00,0.00,0.00,0.00,0.00,0.00,0.00,0.00,0.00,0.00,0.00,0.00,0.00,0.00,0.00,0.00,0.00,0.00,0.00,0.00
DaySchedule - Hourly,HVACOPERATIONSCHD_dy_1,ON/OFF,No,Values:,0.00,0.00,0.00,0.00,0.00,0.00,1.00,1.00,1.00,1.00,1.00,1.00,1.00,1.00,1.00,1.00,1.00,1.00,1.00,0.00,0.00,0.00,0.00,0.00
DaySchedule - Hourly,HVACOPERATIONSCHD_dy_2,ON/OFF,No,Values:,0.00,0.00,0.00,0.00,0.00,0.00,0.00,0.00,0.00,0.00,0.00,0.00,0.00,0.00,0.00,0.00,0.00,0.00,0.00,0.00,0.00,0.00,0.00,0.00
DaySchedule - Hourly,HVACOPERATIONSCHD_dy_3,ON/OFF,No,Values:,0.00,0.00,0.00,0.00,0.00,0.00,0.00,0.00,0.00,0.00,0.00,0.00,0.00,0.00,0.00,0.00,0.00,0.00,0.00,0.00,0.00,0.00,0.00,0.00
DaySchedule - Hourly,HVACOPERATIONSCHD_W_SB_dy_1,FRACTION,No,Values:,0.00,0.00,0.00,0.00,0.00,0.00,1.00,1.00,1.00,1.00,0.00,1.00,0.00,1.00,0.00,1.00,1.00,1.00,1.00,0.00,0.00,0.00,0.00,0.00
DaySchedule - Hourly,HVACOPERATIONSCHD_W_SB_dy_2,FRACTION,No,Values:,0.00,0.00,0.00,0.00,0.00,0.00,0.00,0.00,0.00,0.00,0.00,0.00,0.00,0.00,0.00,0.00,0.00,0.00,0.00,0.00,0.00,0.00,0.00,0.00
DaySchedule - Hourly,HVACOPERATIONSCHD_W_SB_dy_3,FRACTION,No,Values:,0.00,0.00,0.00,0.00,0.00,0.00,1.00,1.00,1.00,1.00,1.00,1.00,1.00,1.00,1.00,1.00,1.00,1.00,1.00,0.00,0.00,0.00,0.00,0.00
DaySchedule - Hourly,HVACOPERATIONSCHD_W_SB_dy_4,FRACTION,No,Values:,0.00,0.00,0.00,0.00,0.00,0.00,0.00,0.00,0.00,0.00,0.00,0.00,0.00,0.00,0.00,0.00,0.00,0.00,0.00,0.00,0.00,0.00,0.00,0.00
DaySchedule - Hourly,HVACOPERATIONSCHD_W_SB_dy_5,FRACTION,No,Values:,0.00,0.00,0.00,0.00,0.00,0.00,0.00,0.00,0.00,0.00,0.00,0.00,0.00,0.00,0.00,0.00,0.00,0.00,0.00,0.00,0.00,0.00,0.00,0.00
DaySchedule - Hourly,PLANTONSCHED_dy_1,ON/OFF,No,Values:,1.00,1.00,1.00,1.00,1.00,1.00,1.00,1.00,1.00,1.00,1.00,1.00,1.00,1.00,1.00,1.00,1.00,1.00,1.00,1.00,1.00,1.00,1.00,1.00
DaySchedule - Hourly,REHEATCOILAVAILSCHED_dy_1,FRACTION,No,Values:,1.00,1.00,1.00,1.00,1.00,1.00,1.00,1.00,1.00,1.00,1.00,1.00,1.00,1.00,1.00,1.00,1.00,1.00,1.00,1.00,1.00,1.00,1.00,1.00
DaySchedule - Hourly,COOLINGCOILAVAILSCHED_dy_1,FRACTION,No,Values:,1.00,1.00,1.00,1.00,1.00,1.00,1.00,1.00,1.00,1.00,1.00,1.00,1.00,1.00,1.00,1.00,1.00,1.00,1.00,1.00,1.00,1.00,1.00,1.00
DaySchedule - Hourly,HTGSETP_SCH_NO_OPTIMUM_dy_1,TEMPERATURE,No,Values:,15.56,15.56,15.56,15.56,15.56,15.56,21.11,21.11,21.11,21.11,21.11,21.11,21.11,21.11,21.11,21.11,21.11,21.11,21.11,15.56,15.56,15.56,15.56,15.56
DaySchedule - Hourly,HTGSETP_SCH_NO_OPTIMUM_dy_2,TEMPERATURE,No,Values:,15.56,15.56,15.56,15.56,15.56,15.56,15.56,15.56,15.56,15.56,15.56,15.56,15.56,15.56,15.56,15.56,15.56,15.56,15.56,15.56,15.56,15.56,15.56,15.56
DaySchedule - Hourly,HTGSETP_SCH_NO_OPTIMUM_dy_3,TEMPERATURE,No,Values:,15.56,15.56,15.56,15.56,15.56,15.56,15.56,15.56,15.56,15.56,15.56,15.56,15.56,15.56,15.56,15.56,15.56,15.56,15.56,15.56,15.56,15.56,15.56,15.56
DaySchedule - Hourly,HTGSETP_SCH_NO_OPTIMUM_dy_4,TEMPERATURE,No,Values:,21.11,21.11,21.11,21.11,21.11,21.11,21.11,21.11,21.11,21.11,21.11,21.11,21.11,21.11,21.11,21.11,21.11,21.11,21.11,21.11,21.11,21.11,21.11,21.11
DaySchedule - Hourly,HTGSETP_SCH_NO_OPTIMUM_dy_5,TEMPERATURE,No,Values:,15.56,15.56,15.56,15.56,15.56,15.56,15.56,15.56,15.56,15.56,15.56,15.56,15.56,15.56,15.56,15.56,15.56,15.56,15.56,15.56,15.56,15.56,15.56,15.56
DaySchedule - Hourly,HTGSETP_SCH_NO_OPTIMUM_dy_6,TEMPERATURE,No,Values:,15.56,15.56,15.56,15.56,15.56,15.56,15.56,15.56,15.56,15.56,15.56,15.56,15.56,15.56,15.56,15.56,15.56,15.56,15.56,15.56,15.56,15.56,15.56,15.56
DaySchedule - Hourly,HTGSETP_SCH_NO_OPTIMUM_dy_7,TEMPERATURE,No,Values:,15.56,15.56,15.56,15.56,15.56,15.56,15.56,15.56,15.56,15.56,15.56,15.56,15.56,15.56,15.56,15.56,15.56,15.56,15.56,15.56,15.56,15.56,15.56,15.56
DaySchedule - Hourly,HTGSETP_SCH_NO_OPTIMUM_W_SB_dy_1,TEMPERATURE,No,Values:,15.56,15.56,15.56,15.56,15.56,15.56,21.11,21.11,21.11,21.11,20.55,21.11,20.55,21.11,20.55,21.11,21.11,21.11,21.11,15.56,15.56,15.56,15.56,15.56
DaySchedule - Hourly,HTGSETP_SCH_NO_OPTIMUM_W_SB_dy_2,TEMPERATURE,No,Values:,15.56,15.56,15.56,15.56,15.56,15.56,15.56,15.56,15.56,15.56,15.56,15.56,15.56,15.56,15.56,15.56,15.56,15.56,15.56,15.56,15.56,15.56,15.56,15.56
DaySchedule - Hourly,HTGSETP_SCH_NO_OPTIMUM_W_SB_dy_3,TEMPERATURE,No,Values:,15.56,15.56,15.56,15.56,15.56,15.56,15.56,15.56,15.56,15.56,15.56,15.56,15.56,15.56,15.56,15.56,15.56,15.56,15.56,15.56,15.56,15.56,15.56,15.56
DaySchedule - Hourly,HTGSETP_SCH_NO_OPTIMUM_W_SB_dy_4,TEMPERATURE,No,Values:,21.11,21.11,21.11,21.11,21.11,21.11,21.11,21.11,21.11,21.11,21.11,21.11,21.11,21.11,21.11,21.11,21.11,21.11,21.11,21.11,21.11,21.11,21.11,21.11
DaySchedule - Hourly,HTGSETP_SCH_NO_OPTIMUM_W_SB_dy_5,TEMPERATURE,No,Values:,15.56,15.56,15.56,15.56,15.56,15.56,15.56,15.56,15.56,15.56,15.56,15.56,15.56,15.56,15.56,15.56,15.56,15.56,15.56,15.56,15.56,15.56,15.56,15.56
DaySchedule - Hourly,HTGSETP_SCH_NO_OPTIMUM_W_SB_dy_6,TEMPERATURE,No,Values:,15.56,15.56,15.56,15.56,15.56,15.56,15.56,15.56,15.56,15.56,15.56,15.56,15.56,15.56,15.56,15.56,15.56,15.56,15.56,15.56,15.56,15.56,15.56,15.56
DaySchedule - Hourly,HTGSETP_SCH_NO_OPTIMUM_W_SB_dy_7,TEMPERATURE,No,Values:,15.56,15.56,15.56,15.56,15.56,15.56,15.56,15.56,15.56,15.56,15.56,15.56,15.56,15.56,15.56,15.56,15.56,15.56,15.56,15.56,15.56,15.56,15.56,15.56
DaySchedule - Hourly,HTGSETP_SCH_YES_OPTIMUM_dy_1,TEMPERATURE,No,Values:,15.56,15.56,15.56,15.56,15.56,15.56,17.80,20.00,21.11,21.11,21.11,21.11,21.11,21.11,21.11,21.11,21.11,21.11,21.11,15.56,15.56,15.56,15.56,15.56
DaySchedule - Hourly,HTGSETP_SCH_YES_OPTIMUM_dy_2,TEMPERATURE,No,Values:,15.56,15.56,15.56,15.56,15.56,15.56,15.56,15.56,15.56,15.56,15.56,15.56,15.56,15.56,15.56,15.56,15.56,15.56,15.56,15.56,15.56,15.56,15.56,15.56
DaySchedule - Hourly,HTGSETP_SCH_YES_OPTIMUM_dy_3,TEMPERATURE,No,Values:,15.56,15.56,15.56,15.56,15.56,15.56,15.56,15.56,15.56,15.56,15.56,15.56,15.56,15.56,15.56,15.56,15.56,15.56,15.56,15.56,15.56,15.56,15.56,15.56
DaySchedule - Hourly,HTGSETP_SCH_YES_OPTIMUM_dy_4,TEMPERATURE,No,Values:,21.11,21.11,21.11,21.11,21.11,21.11,21.11,21.11,21.11,21.11,21.11,21.11,21.11,21.11,21.11,21.11,21.11,21.11,21.11,21.11,21.11,21.11,21.11,21.11
DaySchedule - Hourly,HTGSETP_SCH_YES_OPTIMUM_dy_5,TEMPERATURE,No,Values:,15.56,15.56,15.56,15.56,15.56,15.56,15.56,15.56,15.56,15.56,15.56,15.56,15.56,15.56,15.56,15.56,15.56,15.56,15.56,15.56,15.56,15.56,15.56,15.56
DaySchedule - Hourly,HTGSETP_SCH_YES_OPTIMUM_dy_6,TEMPERATURE,No,Values:,15.56,15.56,15.56,15.56,15.56,15.56,15.56,15.56,15.56,15.56,15.56,15.56,15.56,15.56,15.56,15.56,15.56,15.56,15.56,15.56,15.56,15.56,15.56,15.56
DaySchedule - Hourly,HTGSETP_SCH_YES_OPTIMUM_dy_7,TEMPERATURE,No,Values:,15.56,15.56,15.56,15.56,15.56,15.56,15.56,15.56,15.56,15.56,15.56,15.56,15.56,15.56,15.56,15.56,15.56,15.56,15.56,15.56,15.56,15.56,15.56,15.56
DaySchedule - Hourly,CLGSETP_SCH_NO_OPTIMUM_dy_1,TEMPERATURE,No,Values:,29.44,29.44,29.44,29.44,29.44,29.44,23.89,23.89,23.89,23.89,23.89,23.89,23.89,23.89,23.89,23.89,23.89,23.89,29.44,29.44,29.44,29.44,29.44,29.44
DaySchedule - Hourly,CLGSETP_SCH_NO_OPTIMUM_dy_2,TEMPERATURE,No,Values:,29.44,29.44,29.44,29.44,29.44,29.44,29.44,29.44,29.44,29.44,29.44,29.44,29.44,29.44,29.44,29.44,29.44,29.44,29.44,29.44,29.44,29.44,29.44,29.44
DaySchedule - Hourly,CLGSETP_SCH_NO_OPTIMUM_dy_3,TEMPERATURE,No,Values:,29.44,29.44,29.44,29.44,29.44,29.44,29.44,29.44,29.44,29.44,29.44,29.44,29.44,29.44,29.44,29.44,29.44,29.44,29.44,29.44,29.44,29.44,29.44,29.44
DaySchedule - Hourly,CLGSETP_SCH_NO_OPTIMUM_dy_4,TEMPERATURE,No,Values:,29.44,29.44,29.44,29.44,29.44,29.44,29.44,29.44,29.44,29.44,29.44,29.44,29.44,29.44,29.44,29.44,29.44,29.44,29.44,29.44,29.44,29.44,29.44,29.44
DaySchedule - Hourly,CLGSETP_SCH_NO_OPTIMUM_dy_5,TEMPERATURE,No,Values:,23.89,23.89,23.89,23.89,23.89,23.89,23.89,23.89,23.89,23.89,23.89,23.89,23.89,23.89,23.89,23.89,23.89,23.89,23.89,23.89,23.89,23.89,23.89,23.89
DaySchedule - Hourly,CLGSETP_SCH_NO_OPTIMUM_dy_6,TEMPERATURE,No,Values:,29.44,29.44,29.44,29.44,29.44,29.44,29.44,29.44,29.44,29.44,29.44,29.44,29.44,29.44,29.44,29.44,29.44,29.44,29.44,29.44,29.44,29.44,29.44,29.44
DaySchedule - Hourly,CLGSETP_SCH_NO_OPTIMUM_dy_7,TEMPERATURE,No,Values:,29.44,29.44,29.44,29.44,29.44,29.44,29.44,29.44,29.44,29.44,29.44,29.44,29.44,29.44,29.44,29.44,29.44,29.44,29.44,29.44,29.44,29.44,29.44,29.44
DaySchedule - Hourly,CLGSETP_SCH_NO_OPTIMUM_W_SB_dy_1,TEMPERATURE,No,Values:,29.44,29.44,29.44,29.44,29.44,29.44,23.89,23.89,23.89,23.89,24.45,23.89,24.45,23.89,24.45,23.89,23.89,23.89,29.44,29.44,29.44,29.44,29.44,29.44
DaySchedule - Hourly,CLGSETP_SCH_NO_OPTIMUM_W_SB_dy_2,TEMPERATURE,No,Values:,29.44,29.44,29.44,29.44,29.44,29.44,29.44,29.44,29.44,29.44,29.44,29.44,29.44,29.44,29.44,29.44,29.44,29.44,29.44,29.44,29.44,29.44,29.44,29.44
DaySchedule - Hourly,CLGSETP_SCH_NO_OPTIMUM_W_SB_dy_3,TEMPERATURE,No,Values:,29.44,29.44,29.44,29.44,29.44,29.44,29.44,29.44,29.44,29.44,29.44,29.44,29.44,29.44,29.44,29.44,29.44,29.44,29.44,29.44,29.44,29.44,29.44,29.44
DaySchedule - Hourly,CLGSETP_SCH_NO_OPTIMUM_W_SB_dy_4,TEMPERATURE,No,Values:,29.44,29.44,29.44,29.44,29.44,29.44,29.44,29.44,29.44,29.44,29.44,29.44,29.44,29.44,29.44,29.44,29.44,29.44,29.44,29.44,29.44,29.44,29.44,29.44
DaySchedule - Hourly,CLGSETP_SCH_NO_OPTIMUM_W_SB_dy_5,TEMPERATURE,No,Values:,23.89,23.89,23.89,23.89,23.89,23.89,23.89,23.89,23.89,23.89,23.89,23.89,23.89,23.89,23.89,23.89,23.89,23.89,23.89,23.89,23.89,23.89,23.89,23.89
DaySchedule - Hourly,CLGSETP_SCH_NO_OPTIMUM_W_SB_dy_6,TEMPERATURE,No,Values:,29.44,29.44,29.44,29.44,29.44,29.44,29.44,29.44,29.44,29.44,29.44,29.44,29.44,29.44,29.44,29.44,29.44,29.44,29.44,29.44,29.44,29.44,29.44,29.44
DaySchedule - Hourly,CLGSETP_SCH_NO_OPTIMUM_W_SB_dy_7,TEMPERATURE,No,Values:,29.44,29.44,29.44,29.44,29.44,29.44,29.44,29.44,29.44,29.44,29.44,29.44,29.44,29.44,29.44,29.44,29.44,29.44,29.44,29.44,29.44,29.44,29.44,29.44
DaySchedule - Hourly,CLGSETP_SCH_YES_OPTIMUM_dy_1,TEMPERATURE,No,Values:,29.44,29.44,29.44,29.44,29.44,29.44,27.80,25.60,23.89,23.89,23.89,23.89,23.89,23.89,23.89,23.89,23.89,23.89,29.44,29.44,29.44,29.44,29.44,29.44
DaySchedule - Hourly,CLGSETP_SCH_YES_OPTIMUM_dy_2,TEMPERATURE,No,Values:,29.44,29.44,29.44,29.44,29.44,29.44,29.44,29.44,29.44,29.44,29.44,29.44,29.44,29.44,29.44,29.44,29.44,29.44,29.44,29.44,29.44,29.44,29.44,29.44
DaySchedule - Hourly,CLGSETP_SCH_YES_OPTIMUM_dy_3,TEMPERATURE,No,Values:,29.44,29.44,29.44,29.44,29.44,29.44,29.44,29.44,29.44,29.44,29.44,29.44,29.44,29.44,29.44,29.44,29.44,29.44,29.44,29.44,29.44,29.44,29.44,29.44
DaySchedule - Hourly,CLGSETP_SCH_YES_OPTIMUM_dy_4,TEMPERATURE,No,Values:,29.44,29.44,29.44,29.44,29.44,29.44,29.44,29.44,29.44,29.44,29.44,29.44,29.44,29.44,29.44,29.44,29.44,29.44,29.44,29.44,29.44,29.44,29.44,29.44
DaySchedule - Hourly,CLGSETP_SCH_YES_OPTIMUM_dy_5,TEMPERATURE,No,Values:,23.89,23.89,23.89,23.89,23.89,23.89,23.89,23.89,23.89,23.89,23.89,23.89,23.89,23.89,23.89,23.89,23.89,23.89,23.89,23.89,23.89,23.89,23.89,23.89
DaySchedule - Hourly,CLGSETP_SCH_YES_OPTIMUM_dy_6,TEMPERATURE,No,Values:,29.44,29.44,29.44,29.44,29.44,29.44,29.44,29.44,29.44,29.44,29.44,29.44,29.44,29.44,29.44,29.44,29.44,29.44,29.44,29.44,29.44,29.44,29.44,29.44
DaySchedule - Hourly,CLGSETP_SCH_YES_OPTIMUM_dy_7,TEMPERATURE,No,Values:,29.44,29.44,29.44,29.44,29.44,29.44,29.44,29.44,29.44,29.44,29.44,29.44,29.44,29.44,29.44,29.44,29.44,29.44,29.44,29.44,29.44,29.44,29.44,29.44
DaySchedule - Hourly,CLGSETP_SCH_NO_SETBACK_dy_1,TEMPERATURE,No,Values:,23.89,23.89,23.89,23.89,23.89,23.89,23.89,23.89,23.89,23.89,23.89,23.89,23.89,23.89,23.89,23.89,23.89,23.89,23.89,23.89,23.89,23.89,23.89,23.89
DaySchedule - Hourly,CLGSETP_SCH_NO_SETBACK_dy_2,TEMPERATURE,No,Values:,23.89,23.89,23.89,23.89,23.89,23.89,23.89,23.89,23.89,23.89,23.89,23.89,23.89,23.89,23.89,23.89,23.89,23.89,23.89,23.89,23.89,23.89,23.89,23.89
DaySchedule - Hourly,CLGSETP_SCH_NO_SETBACK_dy_3,TEMPERATURE,No,Values:,23.89,23.89,23.89,23.89,23.89,23.89,23.89,23.89,23.89,23.89,23.89,23.89,23.89,23.89,23.89,23.89,23.89,23.89,23.89,23.89,23.89,23.89,23.89,23.89
DaySchedule - Hourly,CLGSETP_SCH_NO_SETBACK_dy_4,TEMPERATURE,No,Values:,29.44,29.44,29.44,29.44,29.44,29.44,29.44,29.44,29.44,29.44,29.44,29.44,29.44,29.44,29.44,29.44,29.44,29.44,29.44,29.44,29.44,29.44,29.44,29.44
DaySchedule - Hourly,CLGSETP_SCH_NO_SETBACK_dy_5,TEMPERATURE,No,Values:,23.89,23.89,23.89,23.89,23.89,23.89,23.89,23.89,23.89,23.89,23.89,23.89,23.89,23.89,23.89,23.89,23.89,23.89,23.89,23.89,23.89,23.89,23.89,23.89
DaySchedule - Hourly,CLGSETP_SCH_NO_SETBACK_dy_6,TEMPERATURE,No,Values:,23.89,23.89,23.89,23.89,23.89,23.89,23.89,23.89,23.89,23.89,23.89,23.89,23.89,23.89,23.89,23.89,23.89,23.89,23.89,23.89,23.89,23.89,23.89,23.89
DaySchedule - Hourly,CLGSETP_SCH_NO_SETBACK_dy_7,TEMPERATURE,No,Values:,23.89,23.89,23.89,23.89,23.89,23.89,23.89,23.89,23.89,23.89,23.89,23.89,23.89,23.89,23.89,23.89,23.89,23.89,23.89,23.89,23.89,23.89,23.89,23.89
DaySchedule - Hourly,HUMIDITY SETPOINT SCHEDULE_dy_1,HUMIDITY,No,Values:,50.00,50.00,50.00,50.00,50.00,50.00,50.00,50.00,50.00,50.00,50.00,50.00,50.00,50.00,50.00,50.00,50.00,50.00,50.00,50.00,50.00,50.00,50.00,50.00
DaySchedule - Hourly,HUMIDITY SETPOINT SCHEDULE_dy_2,HUMIDITY,No,Values:,50.00,50.00,50.00,50.00,50.00,50.00,50.00,50.00,50.00,50.00,50.00,50.00,50.00,50.00,50.00,50.00,50.00,50.00,50.00,50.00,50.00,50.00,50.00,50.00
DaySchedule - Hourly,HUMIDITY SETPOINT SCHEDULE_dy_3,HUMIDITY,No,Values:,50.00,50.00,50.00,50.00,50.00,50.00,50.00,50.00,50.00,50.00,50.00,50.00,50.00,50.00,50.00,50.00,50.00,50.00,50.00,50.00,50.00,50.00,50.00,50.00
DaySchedule - Hourly,MINOA_MOTORIZEDDAMPER_SCHED_dy_1,FRACTION,No,Values:,0.00,0.00,0.00,0.00,0.00,0.00,0.00,1.00,1.00,1.00,1.00,1.00,1.00,1.00,1.00,1.00,1.00,1.00,1.00,0.00,0.00,0.00,0.00,0.00
DaySchedule - Hourly,MINOA_MOTORIZEDDAMPER_SCHED_dy_2,FRACTION,No,Values:,0.00,0.00,0.00,0.00,0.00,0.00,0.00,0.00,0.00,0.00,0.00,0.00,0.00,0.00,0.00,0.00,0.00,0.00,0.00,0.00,0.00,0.00,0.00,0.00
DaySchedule - Hourly,MINOA_MOTORIZEDDAMPER_SCHED_dy_3,FRACTION,No,Values:,0.00,0.00,0.00,0.00,0.00,0.00,0.00,0.00,0.00,0.00,0.00,0.00,0.00,0.00,0.00,0.00,0.00,0.00,0.00,0.00,0.00,0.00,0.00,0.00
DaySchedule - Hourly,MINOA_SCHED_dy_1,FRACTION,No,Values:,1.00,1.00,1.00,1.00,1.00,1.00,1.00,1.00,1.00,1.00,1.00,1.00,1.00,1.00,1.00,1.00,1.00,1.00,1.00,1.00,1.00,1.00,1.00,1.00
DaySchedule - Hourly,DUAL ZONE CONTROL TYPE SCHED_dy_1,CONTROL TYPE,No,Values:,4.00,4.00,4.00,4.00,4.00,4.00,4.00,4.00,4.00,4.00,4.00,4.00,4.00,4.00,4.00,4.00,4.00,4.00,4.00,4.00,4.00,4.00,4.00,4.00
DaySchedule - Hourly,SEASONAL-RESET-SUPPLY-AIR-TEMP-SCH_dy_1,TEMPERATURE,No,Values:,13.00,13.00,13.00,13.00,13.00,13.00,13.00,13.00,13.00,13.00,13.00,13.00,13.00,13.00,13.00,13.00,13.00,13.00,13.00,13.00,13.00,13.00,13.00,13.00
DaySchedule - Hourly,SEASONAL-RESET-SUPPLY-AIR-TEMP-SCH_dy_2,TEMPERATURE,No,Values:,13.00,13.00,13.00,13.00,13.00,13.00,13.00,13.00,13.00,13.00,13.00,13.00,13.00,13.00,13.00,13.00,13.00,13.00,13.00,13.00,13.00,13.00,13.00,13.00
DaySchedule - Hourly,SEASONAL-RESET-SUPPLY-AIR-TEMP-SCH_dy_3,TEMPERATURE,No,Values:,13.00,13.00,13.00,13.00,13.00,13.00,13.00,13.00,13.00,13.00,13.00,13.00,13.00,13.00,13.00,13.00,13.00,13.00,13.00,13.00,13.00,13.00,13.00,13.00
DaySchedule - Hourly,CW-LOOP-TEMP-SCHEDULE_dy_1,TEMPERATURE,No,Values:,6.70,6.70,6.70,6.70,6.70,6.70,6.70,6.70,6.70,6.70,6.70,6.70,6.70,6.70,6.70,6.70,6.70,6.70,6.70,6.70,6.70,6.70,6.70,6.70
DaySchedule - Hourly,HW-LOOP-TEMP-SCHEDULE_dy_1,TEMPERATURE,No,Values:,60.00,60.00,60.00,60.00,60.00,60.00,60.00,60.00,60.00,60.00,60.00,60.00,60.00,60.00,60.00,60.00,60.00,60.00,60.00,60.00,60.00,60.00,60.00,60.00
DaySchedule - Hourly,HEATING-SUPPLY-AIR-TEMP-SCH_dy_1,TEMPERATURE,No,Values:,16.00,16.00,16.00,16.00,16.00,16.00,16.00,16.00,16.00,16.00,16.00,16.00,16.00,16.00,16.00,16.00,16.00,16.00,16.00,16.00,16.00,16.00,16.00,16.00
DaySchedule - Hourly,ACTIVITY_SCH_dy_1,ANY NUMBER,No,Values:,120.00,120.00,120.00,120.00,120.00,120.00,120.00,120.00,120.00,120.00,120.00,120.00,120.00,120.00,120.00,120.00,120.00,120.00,120.00,120.00,120.00,120.00,120.00,120.00
DaySchedule - Hourly,WORK_EFF_SCH_dy_1,FRACTION,No,Values:,0.00,0.00,0.00,0.00,0.00,0.00,0.00,0.00,0.00,0.00,0.00,0.00,0.00,0.00,0.00,0.00,0.00,0.00,0.00,0.00,0.00,0.00,0.00,0.00
DaySchedule - Hourly,AIR_VELO_SCH_dy_1,ANY NUMBER,No,Values:,0.20,0.20,0.20,0.20,0.20,0.20,0.20,0.20,0.20,0.20,0.20,0.20,0.20,0.20,0.20,0.20,0.20,0.20,0.20,0.20,0.20,0.20,0.20,0.20
DaySchedule - Hourly,CLOTHING_SCH_dy_1,ANY NUMBER,No,Values:,1.00,1.00,1.00,1.00,1.00,1.00,1.00,1.00,1.00,1.00,1.00,1.00,1.00,1.00,1.00,1.00,1.00,1.00,1.00,1.00,1.00,1.00,1.00,1.00
DaySchedule - Hourly,CLOTHING_SCH_dy_2,ANY NUMBER,No,Values:,0.50,0.50,0.50,0.50,0.50,0.50,0.50,0.50,0.50,0.50,0.50,0.50,0.50,0.50,0.50,0.50,0.50,0.50,0.50,0.50,0.50,0.50,0.50,0.50
DaySchedule - Hourly,CLOTHING_SCH_dy_3,ANY NUMBER,No,Values:,1.00,1.00,1.00,1.00,1.00,1.00,1.00,1.00,1.00,1.00,1.00,1.00,1.00,1.00,1.00,1.00,1.00,1.00,1.00,1.00,1.00,1.00,1.00,1.00
DaySchedule - Hourly,SHADING_SCH_dy_1,ANY NUMBER,No,Values:,0.00,0.00,0.00,0.00,0.00,0.00,0.00,0.00,0.00,0.00,0.00,0.00,0.00,0.00,0.00,0.00,0.00,0.00,0.00,0.00,0.00,0.00,0.00,0.00
DaySchedule - Hourly,CORE_ZN WATER EQUIPMENT LATENT FRACT SCHED_dy_1,FRACTION,No,Values:,5.00E-002,5.00E-002,5.00E-002,5.00E-002,5.00E-002,5.00E-002,5.00E-002,5.00E-002,5.00E-002,5.00E-002,5.00E-002,5.00E-002,5.00E-002,5.00E-002,5.00E-002,5.00E-002,5.00E-002,5.00E-002,5.00E-002,5.00E-002,5.00E-002,5.00E-002,5.00E-002,5.00E-002
DaySchedule - Hourly,CORE_ZN WATER EQUIPMENT SENSIBLE FRACT SCHED_dy_1,FRACTION,No,Values:,0.20,0.20,0.20,0.20,0.20,0.20,0.20,0.20,0.20,0.20,0.20,0.20,0.20,0.20,0.20,0.20,0.20,0.20,0.20,0.20,0.20,0.20,0.20,0.20
DaySchedule - Hourly,CORE_ZN WATER EQUIPMENT HOT SUPPLY TEMP SCHED_dy_1,TEMPERATURE,No,Values:,55.00,55.00,55.00,55.00,55.00,55.00,55.00,55.00,55.00,55.00,55.00,55.00,55.00,55.00,55.00,55.00,55.00,55.00,55.00,55.00,55.00,55.00,55.00,55.00
DaySchedule - Hourly,SHWSYS1-LOOP-TEMP-SCHEDULE_dy_1,TEMPERATURE,No,Values:,60.00,60.00,60.00,60.00,60.00,60.00,60.00,60.00,60.00,60.00,60.00,60.00,60.00,60.00,60.00,60.00,60.00,60.00,60.00,60.00,60.00,60.00,60.00,60.00
DaySchedule - Hourly,SHWSYS1 WATER HEATER SETPOINT TEMPERATURE SCHEDULE_dy_1,TEMPERATURE,No,Values:,60.00,60.00,60.00,60.00,60.00,60.00,60.00,60.00,60.00,60.00,60.00,60.00,60.00,60.00,60.00,60.00,60.00,60.00,60.00,60.00,60.00,60.00,60.00,60.00
DaySchedule - Hourly,SHWSYS1 WATER HEATER AMBIENT TEMPERATURE SCHEDULE_dy_1,TEMPERATURE,No,Values:,22.00,22.00,22.00,22.00,22.00,22.00,22.00,22.00,22.00,22.00,22.00,22.00,22.00,22.00,22.00,22.00,22.00,22.00,22.00,22.00,22.00,22.00,22.00,22.00
DaySchedule - Hourly,EXTERIOR_LIGHTING_SCHEDULE_A_dy_1,FRACTION,No,Values:,0.00,0.00,0.00,0.00,0.00,0.00,1.00,1.00,1.00,1.00,1.00,1.00,1.00,1.00,1.00,1.00,1.00,1.00,1.00,1.00,1.00,1.00,1.00,1.00
DaySchedule - Hourly,EXTERIOR_LIGHTING_SCHEDULE_B_dy_1,FRACTION,No,Values:,0.70,0.70,0.70,0.70,0.70,0.70,1.00,1.00,1.00,1.00,1.00,1.00,1.00,1.00,1.00,1.00,1.00,1.00,1.00,1.00,1.00,1.00,1.00,1.00
DaySchedule - Hourly,EXTERIOR_LIGHTING_SCHEDULE_A_IECC2015_dy_1,FRACTION,No,Values:,0.00,0.00,0.00,0.00,0.00,0.00,0.00,1.00,1.00,1.00,1.00,1.00,1.00,1.00,1.00,1.00,1.00,1.00,1.00,0.00,0.00,0.00,0.00,0.00
DaySchedule - Hourly,EXTERIOR_LIGHTING_SCHEDULE_A_IECC2015_dy_2,FRACTION,No,Values:,0.00,0.00,0.00,0.00,0.00,0.00,0.00,0.00,0.00,0.00,0.00,0.00,0.00,0.00,0.00,0.00,0.00,0.00,0.00,0.00,0.00,0.00,0.00,0.00
DaySchedule - Hourly,EXTERIOR_LIGHTING_SCHEDULE_A_IECC2015_dy_3,FRACTION,No,Values:,0.00,0.00,0.00,0.00,0.00,0.00,0.00,0.00,0.00,0.00,0.00,0.00,0.00,0.00,0.00,0.00,0.00,0.00,0.00,0.00,0.00,0.00,0.00,0.00
DaySchedule - Hourly,EXTERIOR_LIGHTING_SCHEDULE_B_2016_dy_1,FRACTION,No,Values:,0.50,0.50,0.50,0.50,0.50,0.50,1.00,1.00,1.00,1.00,1.00,1.00,1.00,1.00,1.00,1.00,1.00,1.00,1.00,1.00,1.00,1.00,1.00,1.00
DaySchedule - Hourly,EXTERIOR_LIGHTING_SCHEDULE_C_2016_dy_1,FRACTION,No,Values:,0.50,0.50,0.50,0.50,0.50,0.50,1.00,1.00,1.00,1.00,1.00,1.00,1.00,1.00,1.00,1.00,1.00,1.00,1.00,0.50,0.50,0.50,0.50,0.50
WeekSchedule - Hourly,BLDG_LIGHT_SCH_wk_1,BLDG_LIGHT_SCH_dy_2,BLDG_LIGHT_SCH_dy_1,BLDG_LIGHT_SCH_dy_1,BLDG_LIGHT_SCH_dy_1,BLDG_LIGHT_SCH_dy_1,BLDG_LIGHT_SCH_dy_1,BLDG_LIGHT_SCH_dy_2,BLDG_LIGHT_SCH_dy_3,BLDG_LIGHT_SCH_dy_5,BLDG_LIGHT_SCH_dy_4,BLDG_LIGHT_SCH_dy_6,BLDG_LIGHT_SCH_dy_7
WeekSchedule - Hourly,BLDG_EQUIP_SCH_wk_1,BLDG_EQUIP_SCH_dy_2,BLDG_EQUIP_SCH_dy_1,BLDG_EQUIP_SCH_dy_1,BLDG_EQUIP_SCH_dy_1,BLDG_EQUIP_SCH_dy_1,BLDG_EQUIP_SCH_dy_1,BLDG_EQUIP_SCH_dy_2,BLDG_EQUIP_SCH_dy_3,BLDG_EQUIP_SCH_dy_5,BLDG_EQUIP_SCH_dy_4,BLDG_EQUIP_SCH_dy_6,BLDG_EQUIP_SCH_dy_7
WeekSchedule - Hourly,BLDG_OCC_SCH_wk_1,BLDG_OCC_SCH_dy_2,BLDG_OCC_SCH_dy_1,BLDG_OCC_SCH_dy_1,BLDG_OCC_SCH_dy_1,BLDG_OCC_SCH_dy_1,BLDG_OCC_SCH_dy_1,BLDG_OCC_SCH_dy_2,BLDG_OCC_SCH_dy_3,BLDG_OCC_SCH_dy_5,BLDG_OCC_SCH_dy_4,BLDG_OCC_SCH_dy_6,BLDG_OCC_SCH_dy_7
WeekSchedule - Hourly,BLDG_OCC_SCH_W_SB_wk_1,BLDG_OCC_SCH_W_SB_dy_2,BLDG_OCC_SCH_W_SB_dy_1,BLDG_OCC_SCH_W_SB_dy_1,BLDG_OCC_SCH_W_SB_dy_1,BLDG_OCC_SCH_W_SB_dy_1,BLDG_OCC_SCH_W_SB_dy_1,BLDG_OCC_SCH_W_SB_dy_2,BLDG_OCC_SCH_W_SB_dy_3,BLDG_OCC_SCH_W_SB_dy_5,BLDG_OCC_SCH_W_SB_dy_4,BLDG_OCC_SCH_W_SB_dy_6,BLDG_OCC_SCH_W_SB_dy_7
WeekSchedule - Hourly,BLDG_OCC_SCH_WO_SB_wk_1,BLDG_OCC_SCH_WO_SB_dy_2,BLDG_OCC_SCH_WO_SB_dy_1,BLDG_OCC_SCH_WO_SB_dy_1,BLDG_OCC_SCH_WO_SB_dy_1,BLDG_OCC_SCH_WO_SB_dy_1,BLDG_OCC_SCH_WO_SB_dy_1,BLDG_OCC_SCH_WO_SB_dy_2,BLDG_OCC_SCH_WO_SB_dy_3,BLDG_OCC_SCH_WO_SB_dy_5,BLDG_OCC_SCH_WO_SB_dy_4,BLDG_OCC_SCH_WO_SB_dy_6,BLDG_OCC_SCH_WO_SB_dy_7
WeekSchedule - Hourly,BINARY OCCUPANCY_wk_1,BINARY OCCUPANCY_dy_2,BINARY OCCUPANCY_dy_1,BINARY OCCUPANCY_dy_1,BINARY OCCUPANCY_dy_1,BINARY OCCUPANCY_dy_1,BINARY OCCUPANCY_dy_1,BINARY OCCUPANCY_dy_2,BINARY OCCUPANCY_dy_3,BINARY OCCUPANCY_dy_5,BINARY OCCUPANCY_dy_4,BINARY OCCUPANCY_dy_6,BINARY OCCUPANCY_dy_7
WeekSchedule - Hourly,INFIL_QUARTER_ON_SCH_wk_1,INFIL_QUARTER_ON_SCH_dy_3,INFIL_QUARTER_ON_SCH_dy_1,INFIL_QUARTER_ON_SCH_dy_1,INFIL_QUARTER_ON_SCH_dy_1,INFIL_QUARTER_ON_SCH_dy_1,INFIL_QUARTER_ON_SCH_dy_1,INFIL_QUARTER_ON_SCH_dy_2,INFIL_QUARTER_ON_SCH_dy_3,INFIL_QUARTER_ON_SCH_dy_1,INFIL_QUARTER_ON_SCH_dy_2,INFIL_QUARTER_ON_SCH_dy_3,INFIL_QUARTER_ON_SCH_dy_3
WeekSchedule - Hourly,INFIL_DOOR_OPENING_SCH_wk_1,INFIL_DOOR_OPENING_SCH_dy_2,INFIL_DOOR_OPENING_SCH_dy_1,INFIL_DOOR_OPENING_SCH_dy_1,INFIL_DOOR_OPENING_SCH_dy_1,INFIL_DOOR_OPENING_SCH_dy_1,INFIL_DOOR_OPENING_SCH_dy_1,INFIL_DOOR_OPENING_SCH_dy_2,INFIL_DOOR_OPENING_SCH_dy_2,INFIL_DOOR_OPENING_SCH_dy_2,INFIL_DOOR_OPENING_SCH_dy_2,INFIL_DOOR_OPENING_SCH_dy_2,INFIL_DOOR_OPENING_SCH_dy_2
WeekSchedule - Hourly,BLDG_SWH_SCH_wk_1,BLDG_SWH_SCH_dy_2,BLDG_SWH_SCH_dy_1,BLDG_SWH_SCH_dy_1,BLDG_SWH_SCH_dy_1,BLDG_SWH_SCH_dy_1,BLDG_SWH_SCH_dy_1,BLDG_SWH_SCH_dy_2,BLDG_SWH_SCH_dy_3,BLDG_SWH_SCH_dy_5,BLDG_SWH_SCH_dy_4,BLDG_SWH_SCH_dy_6,BLDG_SWH_SCH_dy_7
WeekSchedule - Hourly,ALWAYS_ON_wk_1,ALWAYS_ON_dy_1,ALWAYS_ON_dy_1,ALWAYS_ON_dy_1,ALWAYS_ON_dy_1,ALWAYS_ON_dy_1,ALWAYS_ON_dy_1,ALWAYS_ON_dy_1,ALWAYS_ON_dy_1,ALWAYS_ON_dy_1,ALWAYS_ON_dy_1,ALWAYS_ON_dy_1,ALWAYS_ON_dy_1
WeekSchedule - Hourly,EXTERIOR_LGT_ALWAYS_ON_wk_1,EXTERIOR_LGT_ALWAYS_ON_dy_1,EXTERIOR_LGT_ALWAYS_ON_dy_1,EXTERIOR_LGT_ALWAYS_ON_dy_1,EXTERIOR_LGT_ALWAYS_ON_dy_1,EXTERIOR_LGT_ALWAYS_ON_dy_1,EXTERIOR_LGT_ALWAYS_ON_dy_1,EXTERIOR_LGT_ALWAYS_ON_dy_1,EXTERIOR_LGT_ALWAYS_ON_dy_1,EXTERIOR_LGT_ALWAYS_ON_dy_1,EXTERIOR_LGT_ALWAYS_ON_dy_1,EXTERIOR_LGT_ALWAYS_ON_dy_1,EXTERIOR_LGT_ALWAYS_ON_dy_1
WeekSchedule - Hourly,EXTERIOR_LGT_189_1_wk_1,EXTERIOR_LGT_189_1_dy_3,EXTERIOR_LGT_189_1_dy_1,EXTERIOR_LGT_189_1_dy_1,EXTERIOR_LGT_189_1_dy_1,EXTERIOR_LGT_189_1_dy_1,EXTERIOR_LGT_189_1_dy_1,EXTERIOR_LGT_189_1_dy_2,EXTERIOR_LGT_189_1_dy_3,EXTERIOR_LGT_189_1_dy_3,EXTERIOR_LGT_189_1_dy_3,EXTERIOR_LGT_189_1_dy_3,EXTERIOR_LGT_189_1_dy_3
WeekSchedule - Hourly,ALWAYS_OFF_wk_1,ALWAYS_OFF_dy_1,ALWAYS_OFF_dy_1,ALWAYS_OFF_dy_1,ALWAYS_OFF_dy_1,ALWAYS_OFF_dy_1,ALWAYS_OFF_dy_1,ALWAYS_OFF_dy_1,ALWAYS_OFF_dy_1,ALWAYS_OFF_dy_1,ALWAYS_OFF_dy_1,ALWAYS_OFF_dy_1,ALWAYS_OFF_dy_1
WeekSchedule - Hourly,HVACOPERATIONSCHD_wk_1,HVACOPERATIONSCHD_dy_3,HVACOPERATIONSCHD_dy_1,HVACOPERATIONSCHD_dy_1,HVACOPERATIONSCHD_dy_1,HVACOPERATIONSCHD_dy_1,HVACOPERATIONSCHD_dy_1,HVACOPERATIONSCHD_dy_3,HVACOPERATIONSCHD_dy_3,HVACOPERATIONSCHD_dy_1,HVACOPERATIONSCHD_dy_2,HVACOPERATIONSCHD_dy_3,HVACOPERATIONSCHD_dy_3
WeekSchedule - Hourly,HVACOPERATIONSCHD_W_SB_wk_1,HVACOPERATIONSCHD_W_SB_dy_2,HVACOPERATIONSCHD_W_SB_dy_1,HVACOPERATIONSCHD_W_SB_dy_1,HVACOPERATIONSCHD_W_SB_dy_1,HVACOPERATIONSCHD_W_SB_dy_1,HVACOPERATIONSCHD_W_SB_dy_1,HVACOPERATIONSCHD_W_SB_dy_2,HVACOPERATIONSCHD_W_SB_dy_5,HVACOPERATIONSCHD_W_SB_dy_3,HVACOPERATIONSCHD_W_SB_dy_4,HVACOPERATIONSCHD_W_SB_dy_5,HVACOPERATIONSCHD_W_SB_dy_5
WeekSchedule - Hourly,PLANTONSCHED_wk_1,PLANTONSCHED_dy_1,PLANTONSCHED_dy_1,PLANTONSCHED_dy_1,PLANTONSCHED_dy_1,PLANTONSCHED_dy_1,PLANTONSCHED_dy_1,PLANTONSCHED_dy_1,PLANTONSCHED_dy_1,PLANTONSCHED_dy_1,PLANTONSCHED_dy_1,PLANTONSCHED_dy_1,PLANTONSCHED_dy_1
WeekSchedule - Hourly,REHEATCOILAVAILSCHED_wk_1,REHEATCOILAVAILSCHED_dy_1,REHEATCOILAVAILSCHED_dy_1,REHEATCOILAVAILSCHED_dy_1,REHEATCOILAVAILSCHED_dy_1,REHEATCOILAVAILSCHED_dy_1,REHEATCOILAVAILSCHED_dy_1,REHEATCOILAVAILSCHED_dy_1,REHEATCOILAVAILSCHED_dy_1,REHEATCOILAVAILSCHED_dy_1,REHEATCOILAVAILSCHED_dy_1,REHEATCOILAVAILSCHED_dy_1,REHEATCOILAVAILSCHED_dy_1
WeekSchedule - Hourly,COOLINGCOILAVAILSCHED_wk_1,COOLINGCOILAVAILSCHED_dy_1,COOLINGCOILAVAILSCHED_dy_1,COOLINGCOILAVAILSCHED_dy_1,COOLINGCOILAVAILSCHED_dy_1,COOLINGCOILAVAILSCHED_dy_1,COOLINGCOILAVAILSCHED_dy_1,COOLINGCOILAVAILSCHED_dy_1,COOLINGCOILAVAILSCHED_dy_1,COOLINGCOILAVAILSCHED_dy_1,COOLINGCOILAVAILSCHED_dy_1,COOLINGCOILAVAILSCHED_dy_1,COOLINGCOILAVAILSCHED_dy_1
WeekSchedule - Hourly,HTGSETP_SCH_NO_OPTIMUM_wk_1,HTGSETP_SCH_NO_OPTIMUM_dy_2,HTGSETP_SCH_NO_OPTIMUM_dy_1,HTGSETP_SCH_NO_OPTIMUM_dy_1,HTGSETP_SCH_NO_OPTIMUM_dy_1,HTGSETP_SCH_NO_OPTIMUM_dy_1,HTGSETP_SCH_NO_OPTIMUM_dy_1,HTGSETP_SCH_NO_OPTIMUM_dy_2,HTGSETP_SCH_NO_OPTIMUM_dy_3,HTGSETP_SCH_NO_OPTIMUM_dy_5,HTGSETP_SCH_NO_OPTIMUM_dy_4,HTGSETP_SCH_NO_OPTIMUM_dy_6,HTGSETP_SCH_NO_OPTIMUM_dy_7
WeekSchedule - Hourly,HTGSETP_SCH_NO_OPTIMUM_W_SB_wk_1,HTGSETP_SCH_NO_OPTIMUM_W_SB_dy_2,HTGSETP_SCH_NO_OPTIMUM_W_SB_dy_1,HTGSETP_SCH_NO_OPTIMUM_W_SB_dy_1,HTGSETP_SCH_NO_OPTIMUM_W_SB_dy_1,HTGSETP_SCH_NO_OPTIMUM_W_SB_dy_1,HTGSETP_SCH_NO_OPTIMUM_W_SB_dy_1,HTGSETP_SCH_NO_OPTIMUM_W_SB_dy_2,HTGSETP_SCH_NO_OPTIMUM_W_SB_dy_3,HTGSETP_SCH_NO_OPTIMUM_W_SB_dy_5,HTGSETP_SCH_NO_OPTIMUM_W_SB_dy_4,HTGSETP_SCH_NO_OPTIMUM_W_SB_dy_6,HTGSETP_SCH_NO_OPTIMUM_W_SB_dy_7
WeekSchedule - Hourly,HTGSETP_SCH_YES_OPTIMUM_wk_1,HTGSETP_SCH_YES_OPTIMUM_dy_2,HTGSETP_SCH_YES_OPTIMUM_dy_1,HTGSETP_SCH_YES_OPTIMUM_dy_1,HTGSETP_SCH_YES_OPTIMUM_dy_1,HTGSETP_SCH_YES_OPTIMUM_dy_1,HTGSETP_SCH_YES_OPTIMUM_dy_1,HTGSETP_SCH_YES_OPTIMUM_dy_2,HTGSETP_SCH_YES_OPTIMUM_dy_3,HTGSETP_SCH_YES_OPTIMUM_dy_5,HTGSETP_SCH_YES_OPTIMUM_dy_4,HTGSETP_SCH_YES_OPTIMUM_dy_6,HTGSETP_SCH_YES_OPTIMUM_dy_7
WeekSchedule - Hourly,CLGSETP_SCH_NO_OPTIMUM_wk_1,CLGSETP_SCH_NO_OPTIMUM_dy_2,CLGSETP_SCH_NO_OPTIMUM_dy_1,CLGSETP_SCH_NO_OPTIMUM_dy_1,CLGSETP_SCH_NO_OPTIMUM_dy_1,CLGSETP_SCH_NO_OPTIMUM_dy_1,CLGSETP_SCH_NO_OPTIMUM_dy_1,CLGSETP_SCH_NO_OPTIMUM_dy_2,CLGSETP_SCH_NO_OPTIMUM_dy_3,CLGSETP_SCH_NO_OPTIMUM_dy_5,CLGSETP_SCH_NO_OPTIMUM_dy_4,CLGSETP_SCH_NO_OPTIMUM_dy_6,CLGSETP_SCH_NO_OPTIMUM_dy_7
WeekSchedule - Hourly,CLGSETP_SCH_NO_OPTIMUM_W_SB_wk_1,CLGSETP_SCH_NO_OPTIMUM_W_SB_dy_2,CLGSETP_SCH_NO_OPTIMUM_W_SB_dy_1,CLGSETP_SCH_NO_OPTIMUM_W_SB_dy_1,CLGSETP_SCH_NO_OPTIMUM_W_SB_dy_1,CLGSETP_SCH_NO_OPTIMUM_W_SB_dy_1,CLGSETP_SCH_NO_OPTIMUM_W_SB_dy_1,CLGSETP_SCH_NO_OPTIMUM_W_SB_dy_2,CLGSETP_SCH_NO_OPTIMUM_W_SB_dy_3,CLGSETP_SCH_NO_OPTIMUM_W_SB_dy_5,CLGSETP_SCH_NO_OPTIMUM_W_SB_dy_4,CLGSETP_SCH_NO_OPTIMUM_W_SB_dy_6,CLGSETP_SCH_NO_OPTIMUM_W_SB_dy_7
WeekSchedule - Hourly,CLGSETP_SCH_YES_OPTIMUM_wk_1,CLGSETP_SCH_YES_OPTIMUM_dy_2,CLGSETP_SCH_YES_OPTIMUM_dy_1,CLGSETP_SCH_YES_OPTIMUM_dy_1,CLGSETP_SCH_YES_OPTIMUM_dy_1,CLGSETP_SCH_YES_OPTIMUM_dy_1,CLGSETP_SCH_YES_OPTIMUM_dy_1,CLGSETP_SCH_YES_OPTIMUM_dy_2,CLGSETP_SCH_YES_OPTIMUM_dy_3,CLGSETP_SCH_YES_OPTIMUM_dy_5,CLGSETP_SCH_YES_OPTIMUM_dy_4,CLGSETP_SCH_YES_OPTIMUM_dy_6,CLGSETP_SCH_YES_OPTIMUM_dy_7
WeekSchedule - Hourly,CLGSETP_SCH_NO_SETBACK_wk_1,CLGSETP_SCH_NO_SETBACK_dy_2,CLGSETP_SCH_NO_SETBACK_dy_1,CLGSETP_SCH_NO_SETBACK_dy_1,CLGSETP_SCH_NO_SETBACK_dy_1,CLGSETP_SCH_NO_SETBACK_dy_1,CLGSETP_SCH_NO_SETBACK_dy_1,CLGSETP_SCH_NO_SETBACK_dy_2,CLGSETP_SCH_NO_SETBACK_dy_3,CLGSETP_SCH_NO_SETBACK_dy_5,CLGSETP_SCH_NO_SETBACK_dy_4,CLGSETP_SCH_NO_SETBACK_dy_6,CLGSETP_SCH_NO_SETBACK_dy_7
WeekSchedule - Hourly,HUMIDITY SETPOINT SCHEDULE_wk_1,HUMIDITY SETPOINT SCHEDULE_dy_3,HUMIDITY SETPOINT SCHEDULE_dy_1,HUMIDITY SETPOINT SCHEDULE_dy_1,HUMIDITY SETPOINT SCHEDULE_dy_1,HUMIDITY SETPOINT SCHEDULE_dy_1,HUMIDITY SETPOINT SCHEDULE_dy_1,HUMIDITY SETPOINT SCHEDULE_dy_2,HUMIDITY SETPOINT SCHEDULE_dy_3,HUMIDITY SETPOINT SCHEDULE_dy_1,HUMIDITY SETPOINT SCHEDULE_dy_2,HUMIDITY SETPOINT SCHEDULE_dy_3,HUMIDITY SETPOINT SCHEDULE_dy_3
WeekSchedule - Hourly,MINOA_MOTORIZEDDAMPER_SCHED_wk_1,MINOA_MOTORIZEDDAMPER_SCHED_dy_2,MINOA_MOTORIZEDDAMPER_SCHED_dy_1,MINOA_MOTORIZEDDAMPER_SCHED_dy_1,MINOA_MOTORIZEDDAMPER_SCHED_dy_1,MINOA_MOTORIZEDDAMPER_SCHED_dy_1,MINOA_MOTORIZEDDAMPER_SCHED_dy_1,MINOA_MOTORIZEDDAMPER_SCHED_dy_2,MINOA_MOTORIZEDDAMPER_SCHED_dy_3,MINOA_MOTORIZEDDAMPER_SCHED_dy_1,MINOA_MOTORIZEDDAMPER_SCHED_dy_2,MINOA_MOTORIZEDDAMPER_SCHED_dy_3,MINOA_MOTORIZEDDAMPER_SCHED_dy_3
WeekSchedule - Hourly,MINOA_SCHED_wk_1,MINOA_SCHED_dy_1,MINOA_SCHED_dy_1,MINOA_SCHED_dy_1,MINOA_SCHED_dy_1,MINOA_SCHED_dy_1,MINOA_SCHED_dy_1,MINOA_SCHED_dy_1,MINOA_SCHED_dy_1,MINOA_SCHED_dy_1,MINOA_SCHED_dy_1,MINOA_SCHED_dy_1,MINOA_SCHED_dy_1
WeekSchedule - Hourly,DUAL ZONE CONTROL TYPE SCHED_wk_1,DUAL ZONE CONTROL TYPE SCHED_dy_1,DUAL ZONE CONTROL TYPE SCHED_dy_1,DUAL ZONE CONTROL TYPE SCHED_dy_1,DUAL ZONE CONTROL TYPE SCHED_dy_1,DUAL ZONE CONTROL TYPE SCHED_dy_1,DUAL ZONE CONTROL TYPE SCHED_dy_1,DUAL ZONE CONTROL TYPE SCHED_dy_1,DUAL ZONE CONTROL TYPE SCHED_dy_1,DUAL ZONE CONTROL TYPE SCHED_dy_1,DUAL ZONE CONTROL TYPE SCHED_dy_1,DUAL ZONE CONTROL TYPE SCHED_dy_1,DUAL ZONE CONTROL TYPE SCHED_dy_1
WeekSchedule - Hourly,SEASONAL-RESET-SUPPLY-AIR-TEMP-SCH_wk_1,SEASONAL-RESET-SUPPLY-AIR-TEMP-SCH_dy_1,SEASONAL-RESET-SUPPLY-AIR-TEMP-SCH_dy_1,SEASONAL-RESET-SUPPLY-AIR-TEMP-SCH_dy_1,SEASONAL-RESET-SUPPLY-AIR-TEMP-SCH_dy_1,SEASONAL-RESET-SUPPLY-AIR-TEMP-SCH_dy_1,SEASONAL-RESET-SUPPLY-AIR-TEMP-SCH_dy_1,SEASONAL-RESET-SUPPLY-AIR-TEMP-SCH_dy_1,SEASONAL-RESET-SUPPLY-AIR-TEMP-SCH_dy_1,SEASONAL-RESET-SUPPLY-AIR-TEMP-SCH_dy_1,SEASONAL-RESET-SUPPLY-AIR-TEMP-SCH_dy_1,SEASONAL-RESET-SUPPLY-AIR-TEMP-SCH_dy_1,SEASONAL-RESET-SUPPLY-AIR-TEMP-SCH_dy_1
WeekSchedule - Hourly,SEASONAL-RESET-SUPPLY-AIR-TEMP-SCH_wk_2,SEASONAL-RESET-SUPPLY-AIR-TEMP-SCH_dy_2,SEASONAL-RESET-SUPPLY-AIR-TEMP-SCH_dy_2,SEASONAL-RESET-SUPPLY-AIR-TEMP-SCH_dy_2,SEASONAL-RESET-SUPPLY-AIR-TEMP-SCH_dy_2,SEASONAL-RESET-SUPPLY-AIR-TEMP-SCH_dy_2,SEASONAL-RESET-SUPPLY-AIR-TEMP-SCH_dy_2,SEASONAL-RESET-SUPPLY-AIR-TEMP-SCH_dy_2,SEASONAL-RESET-SUPPLY-AIR-TEMP-SCH_dy_2,SEASONAL-RESET-SUPPLY-AIR-TEMP-SCH_dy_2,SEASONAL-RESET-SUPPLY-AIR-TEMP-SCH_dy_2,SEASONAL-RESET-SUPPLY-AIR-TEMP-SCH_dy_2,SEASONAL-RESET-SUPPLY-AIR-TEMP-SCH_dy_2
WeekSchedule - Hourly,SEASONAL-RESET-SUPPLY-AIR-TEMP-SCH_wk_3,SEASONAL-RESET-SUPPLY-AIR-TEMP-SCH_dy_3,SEASONAL-RESET-SUPPLY-AIR-TEMP-SCH_dy_3,SEASONAL-RESET-SUPPLY-AIR-TEMP-SCH_dy_3,SEASONAL-RESET-SUPPLY-AIR-TEMP-SCH_dy_3,SEASONAL-RESET-SUPPLY-AIR-TEMP-SCH_dy_3,SEASONAL-RESET-SUPPLY-AIR-TEMP-SCH_dy_3,SEASONAL-RESET-SUPPLY-AIR-TEMP-SCH_dy_3,SEASONAL-RESET-SUPPLY-AIR-TEMP-SCH_dy_3,SEASONAL-RESET-SUPPLY-AIR-TEMP-SCH_dy_3,SEASONAL-RESET-SUPPLY-AIR-TEMP-SCH_dy_3,SEASONAL-RESET-SUPPLY-AIR-TEMP-SCH_dy_3,SEASONAL-RESET-SUPPLY-AIR-TEMP-SCH_dy_3
WeekSchedule - Hourly,CW-LOOP-TEMP-SCHEDULE_wk_1,CW-LOOP-TEMP-SCHEDULE_dy_1,CW-LOOP-TEMP-SCHEDULE_dy_1,CW-LOOP-TEMP-SCHEDULE_dy_1,CW-LOOP-TEMP-SCHEDULE_dy_1,CW-LOOP-TEMP-SCHEDULE_dy_1,CW-LOOP-TEMP-SCHEDULE_dy_1,CW-LOOP-TEMP-SCHEDULE_dy_1,CW-LOOP-TEMP-SCHEDULE_dy_1,CW-LOOP-TEMP-SCHEDULE_dy_1,CW-LOOP-TEMP-SCHEDULE_dy_1,CW-LOOP-TEMP-SCHEDULE_dy_1,CW-LOOP-TEMP-SCHEDULE_dy_1
WeekSchedule - Hourly,HW-LOOP-TEMP-SCHEDULE_wk_1,HW-LOOP-TEMP-SCHEDULE_dy_1,HW-LOOP-TEMP-SCHEDULE_dy_1,HW-LOOP-TEMP-SCHEDULE_dy_1,HW-LOOP-TEMP-SCHEDULE_dy_1,HW-LOOP-TEMP-SCHEDULE_dy_1,HW-LOOP-TEMP-SCHEDULE_dy_1,HW-LOOP-TEMP-SCHEDULE_dy_1,HW-LOOP-TEMP-SCHEDULE_dy_1,HW-LOOP-TEMP-SCHEDULE_dy_1,HW-LOOP-TEMP-SCHEDULE_dy_1,HW-LOOP-TEMP-SCHEDULE_dy_1,HW-LOOP-TEMP-SCHEDULE_dy_1
WeekSchedule - Hourly,HEATING-SUPPLY-AIR-TEMP-SCH_wk_1,HEATING-SUPPLY-AIR-TEMP-SCH_dy_1,HEATING-SUPPLY-AIR-TEMP-SCH_dy_1,HEATING-SUPPLY-AIR-TEMP-SCH_dy_1,HEATING-SUPPLY-AIR-TEMP-SCH_dy_1,HEATING-SUPPLY-AIR-TEMP-SCH_dy_1,HEATING-SUPPLY-AIR-TEMP-SCH_dy_1,HEATING-SUPPLY-AIR-TEMP-SCH_dy_1,HEATING-SUPPLY-AIR-TEMP-SCH_dy_1,HEATING-SUPPLY-AIR-TEMP-SCH_dy_1,HEATING-SUPPLY-AIR-TEMP-SCH_dy_1,HEATING-SUPPLY-AIR-TEMP-SCH_dy_1,HEATING-SUPPLY-AIR-TEMP-SCH_dy_1
WeekSchedule - Hourly,ACTIVITY_SCH_wk_1,ACTIVITY_SCH_dy_1,ACTIVITY_SCH_dy_1,ACTIVITY_SCH_dy_1,ACTIVITY_SCH_dy_1,ACTIVITY_SCH_dy_1,ACTIVITY_SCH_dy_1,ACTIVITY_SCH_dy_1,ACTIVITY_SCH_dy_1,ACTIVITY_SCH_dy_1,ACTIVITY_SCH_dy_1,ACTIVITY_SCH_dy_1,ACTIVITY_SCH_dy_1
WeekSchedule - Hourly,WORK_EFF_SCH_wk_1,WORK_EFF_SCH_dy_1,WORK_EFF_SCH_dy_1,WORK_EFF_SCH_dy_1,WORK_EFF_SCH_dy_1,WORK_EFF_SCH_dy_1,WORK_EFF_SCH_dy_1,WORK_EFF_SCH_dy_1,WORK_EFF_SCH_dy_1,WORK_EFF_SCH_dy_1,WORK_EFF_SCH_dy_1,WORK_EFF_SCH_dy_1,WORK_EFF_SCH_dy_1
WeekSchedule - Hourly,AIR_VELO_SCH_wk_1,AIR_VELO_SCH_dy_1,AIR_VELO_SCH_dy_1,AIR_VELO_SCH_dy_1,AIR_VELO_SCH_dy_1,AIR_VELO_SCH_dy_1,AIR_VELO_SCH_dy_1,AIR_VELO_SCH_dy_1,AIR_VELO_SCH_dy_1,AIR_VELO_SCH_dy_1,AIR_VELO_SCH_dy_1,AIR_VELO_SCH_dy_1,AIR_VELO_SCH_dy_1
WeekSchedule - Hourly,CLOTHING_SCH_wk_1,CLOTHING_SCH_dy_1,CLOTHING_SCH_dy_1,CLOTHING_SCH_dy_1,CLOTHING_SCH_dy_1,CLOTHING_SCH_dy_1,CLOTHING_SCH_dy_1,CLOTHING_SCH_dy_1,CLOTHING_SCH_dy_1,CLOTHING_SCH_dy_1,CLOTHING_SCH_dy_1,CLOTHING_SCH_dy_1,CLOTHING_SCH_dy_1
WeekSchedule - Hourly,CLOTHING_SCH_wk_2,CLOTHING_SCH_dy_2,CLOTHING_SCH_dy_2,CLOTHING_SCH_dy_2,CLOTHING_SCH_dy_2,CLOTHING_SCH_dy_2,CLOTHING_SCH_dy_2,CLOTHING_SCH_dy_2,CLOTHING_SCH_dy_2,CLOTHING_SCH_dy_2,CLOTHING_SCH_dy_2,CLOTHING_SCH_dy_2,CLOTHING_SCH_dy_2
WeekSchedule - Hourly,CLOTHING_SCH_wk_3,CLOTHING_SCH_dy_3,CLOTHING_SCH_dy_3,CLOTHING_SCH_dy_3,CLOTHING_SCH_dy_3,CLOTHING_SCH_dy_3,CLOTHING_SCH_dy_3,CLOTHING_SCH_dy_3,CLOTHING_SCH_dy_3,CLOTHING_SCH_dy_3,CLOTHING_SCH_dy_3,CLOTHING_SCH_dy_3,CLOTHING_SCH_dy_3
WeekSchedule - Hourly,SHADING_SCH_wk_1,SHADING_SCH_dy_1,SHADING_SCH_dy_1,SHADING_SCH_dy_1,SHADING_SCH_dy_1,SHADING_SCH_dy_1,SHADING_SCH_dy_1,SHADING_SCH_dy_1,SHADING_SCH_dy_1,SHADING_SCH_dy_1,SHADING_SCH_dy_1,SHADING_SCH_dy_1,SHADING_SCH_dy_1
WeekSchedule - Hourly,CORE_ZN WATER EQUIPMENT LATENT FRACT SCHED_wk_1,CORE_ZN WATER EQUIPMENT LATENT FRACT SCHED_dy_1,CORE_ZN WATER EQUIPMENT LATENT FRACT SCHED_dy_1,CORE_ZN WATER EQUIPMENT LATENT FRACT SCHED_dy_1,CORE_ZN WATER EQUIPMENT LATENT FRACT SCHED_dy_1,CORE_ZN WATER EQUIPMENT LATENT FRACT SCHED_dy_1,CORE_ZN WATER EQUIPMENT LATENT FRACT SCHED_dy_1,CORE_ZN WATER EQUIPMENT LATENT FRACT SCHED_dy_1,CORE_ZN WATER EQUIPMENT LATENT FRACT SCHED_dy_1,CORE_ZN WATER EQUIPMENT LATENT FRACT SCHED_dy_1,CORE_ZN WATER EQUIPMENT LATENT FRACT SCHED_dy_1,CORE_ZN WATER EQUIPMENT LATENT FRACT SCHED_dy_1,CORE_ZN WATER EQUIPMENT LATENT FRACT SCHED_dy_1
WeekSchedule - Hourly,CORE_ZN WATER EQUIPMENT SENSIBLE FRACT SCHED_wk_1,CORE_ZN WATER EQUIPMENT SENSIBLE FRACT SCHED_dy_1,CORE_ZN WATER EQUIPMENT SENSIBLE FRACT SCHED_dy_1,CORE_ZN WATER EQUIPMENT SENSIBLE FRACT SCHED_dy_1,CORE_ZN WATER EQUIPMENT SENSIBLE FRACT SCHED_dy_1,CORE_ZN WATER EQUIPMENT SENSIBLE FRACT SCHED_dy_1,CORE_ZN WATER EQUIPMENT SENSIBLE FRACT SCHED_dy_1,CORE_ZN WATER EQUIPMENT SENSIBLE FRACT SCHED_dy_1,CORE_ZN WATER EQUIPMENT SENSIBLE FRACT SCHED_dy_1,CORE_ZN WATER EQUIPMENT SENSIBLE FRACT SCHED_dy_1,CORE_ZN WATER EQUIPMENT SENSIBLE FRACT SCHED_dy_1,CORE_ZN WATER EQUIPMENT SENSIBLE FRACT SCHED_dy_1,CORE_ZN WATER EQUIPMENT SENSIBLE FRACT SCHED_dy_1
WeekSchedule - Hourly,CORE_ZN WATER EQUIPMENT HOT SUPPLY TEMP SCHED_wk_1,CORE_ZN WATER EQUIPMENT HOT SUPPLY TEMP SCHED_dy_1,CORE_ZN WATER EQUIPMENT HOT SUPPLY TEMP SCHED_dy_1,CORE_ZN WATER EQUIPMENT HOT SUPPLY TEMP SCHED_dy_1,CORE_ZN WATER EQUIPMENT HOT SUPPLY TEMP SCHED_dy_1,CORE_ZN WATER EQUIPMENT HOT SUPPLY TEMP SCHED_dy_1,CORE_ZN WATER EQUIPMENT HOT SUPPLY TEMP SCHED_dy_1,CORE_ZN WATER EQUIPMENT HOT SUPPLY TEMP SCHED_dy_1,CORE_ZN WATER EQUIPMENT HOT SUPPLY TEMP SCHED_dy_1,CORE_ZN WATER EQUIPMENT HOT SUPPLY TEMP SCHED_dy_1,CORE_ZN WATER EQUIPMENT HOT SUPPLY TEMP SCHED_dy_1,CORE_ZN WATER EQUIPMENT HOT SUPPLY TEMP SCHED_dy_1,CORE_ZN WATER EQUIPMENT HOT SUPPLY TEMP SCHED_dy_1
WeekSchedule - Hourly,SHWSYS1-LOOP-TEMP-SCHEDULE_wk_1,SHWSYS1-LOOP-TEMP-SCHEDULE_dy_1,SHWSYS1-LOOP-TEMP-SCHEDULE_dy_1,SHWSYS1-LOOP-TEMP-SCHEDULE_dy_1,SHWSYS1-LOOP-TEMP-SCHEDULE_dy_1,SHWSYS1-LOOP-TEMP-SCHEDULE_dy_1,SHWSYS1-LOOP-TEMP-SCHEDULE_dy_1,SHWSYS1-LOOP-TEMP-SCHEDULE_dy_1,SHWSYS1-LOOP-TEMP-SCHEDULE_dy_1,SHWSYS1-LOOP-TEMP-SCHEDULE_dy_1,SHWSYS1-LOOP-TEMP-SCHEDULE_dy_1,SHWSYS1-LOOP-TEMP-SCHEDULE_dy_1,SHWSYS1-LOOP-TEMP-SCHEDULE_dy_1
WeekSchedule - Hourly,SHWSYS1 WATER HEATER SETPOINT TEMPERATURE SCHEDULE_wk_1,SHWSYS1 WATER HEATER SETPOINT TEMPERATURE SCHEDULE_dy_1,SHWSYS1 WATER HEATER SETPOINT TEMPERATURE SCHEDULE_dy_1,SHWSYS1 WATER HEATER SETPOINT TEMPERATURE SCHEDULE_dy_1,SHWSYS1 WATER HEATER SETPOINT TEMPERATURE SCHEDULE_dy_1,SHWSYS1 WATER HEATER SETPOINT TEMPERATURE SCHEDULE_dy_1,SHWSYS1 WATER HEATER SETPOINT TEMPERATURE SCHEDULE_dy_1,SHWSYS1 WATER HEATER SETPOINT TEMPERATURE SCHEDULE_dy_1,SHWSYS1 WATER HEATER SETPOINT TEMPERATURE SCHEDULE_dy_1,SHWSYS1 WATER HEATER SETPOINT TEMPERATURE SCHEDULE_dy_1,SHWSYS1 WATER HEATER SETPOINT TEMPERATURE SCHEDULE_dy_1,SHWSYS1 WATER HEATER SETPOINT TEMPERATURE SCHEDULE_dy_1,SHWSYS1 WATER HEATER SETPOINT TEMPERATURE SCHEDULE_dy_1
WeekSchedule - Hourly,SHWSYS1 WATER HEATER AMBIENT TEMPERATURE SCHEDULE_wk_1,SHWSYS1 WATER HEATER AMBIENT TEMPERATURE SCHEDULE_dy_1,SHWSYS1 WATER HEATER AMBIENT TEMPERATURE SCHEDULE_dy_1,SHWSYS1 WATER HEATER AMBIENT TEMPERATURE SCHEDULE_dy_1,SHWSYS1 WATER HEATER AMBIENT TEMPERATURE SCHEDULE_dy_1,SHWSYS1 WATER HEATER AMBIENT TEMPERATURE SCHEDULE_dy_1,SHWSYS1 WATER HEATER AMBIENT TEMPERATURE SCHEDULE_dy_1,SHWSYS1 WATER HEATER AMBIENT TEMPERATURE SCHEDULE_dy_1,SHWSYS1 WATER HEATER AMBIENT TEMPERATURE SCHEDULE_dy_1,SHWSYS1 WATER HEATER AMBIENT TEMPERATURE SCHEDULE_dy_1,SHWSYS1 WATER HEATER AMBIENT TEMPERATURE SCHEDULE_dy_1,SHWSYS1 WATER HEATER AMBIENT TEMPERATURE SCHEDULE_dy_1,SHWSYS1 WATER HEATER AMBIENT TEMPERATURE SCHEDULE_dy_1
WeekSchedule - Hourly,EXTERIOR_LIGHTING_SCHEDULE_A_wk_1,EXTERIOR_LIGHTING_SCHEDULE_A_dy_1,EXTERIOR_LIGHTING_SCHEDULE_A_dy_1,EXTERIOR_LIGHTING_SCHEDULE_A_dy_1,EXTERIOR_LIGHTING_SCHEDULE_A_dy_1,EXTERIOR_LIGHTING_SCHEDULE_A_dy_1,EXTERIOR_LIGHTING_SCHEDULE_A_dy_1,EXTERIOR_LIGHTING_SCHEDULE_A_dy_1,EXTERIOR_LIGHTING_SCHEDULE_A_dy_1,EXTERIOR_LIGHTING_SCHEDULE_A_dy_1,EXTERIOR_LIGHTING_SCHEDULE_A_dy_1,EXTERIOR_LIGHTING_SCHEDULE_A_dy_1,EXTERIOR_LIGHTING_SCHEDULE_A_dy_1
WeekSchedule - Hourly,EXTERIOR_LIGHTING_SCHEDULE_B_wk_1,EXTERIOR_LIGHTING_SCHEDULE_B_dy_1,EXTERIOR_LIGHTING_SCHEDULE_B_dy_1,EXTERIOR_LIGHTING_SCHEDULE_B_dy_1,EXTERIOR_LIGHTING_SCHEDULE_B_dy_1,EXTERIOR_LIGHTING_SCHEDULE_B_dy_1,EXTERIOR_LIGHTING_SCHEDULE_B_dy_1,EXTERIOR_LIGHTING_SCHEDULE_B_dy_1,EXTERIOR_LIGHTING_SCHEDULE_B_dy_1,EXTERIOR_LIGHTING_SCHEDULE_B_dy_1,EXTERIOR_LIGHTING_SCHEDULE_B_dy_1,EXTERIOR_LIGHTING_SCHEDULE_B_dy_1,EXTERIOR_LIGHTING_SCHEDULE_B_dy_1
WeekSchedule - Hourly,EXTERIOR_LIGHTING_SCHEDULE_A_IECC2015_wk_1,EXTERIOR_LIGHTING_SCHEDULE_A_IECC2015_dy_3,EXTERIOR_LIGHTING_SCHEDULE_A_IECC2015_dy_1,EXTERIOR_LIGHTING_SCHEDULE_A_IECC2015_dy_1,EXTERIOR_LIGHTING_SCHEDULE_A_IECC2015_dy_1,EXTERIOR_LIGHTING_SCHEDULE_A_IECC2015_dy_1,EXTERIOR_LIGHTING_SCHEDULE_A_IECC2015_dy_1,EXTERIOR_LIGHTING_SCHEDULE_A_IECC2015_dy_2,EXTERIOR_LIGHTING_SCHEDULE_A_IECC2015_dy_3,EXTERIOR_LIGHTING_SCHEDULE_A_IECC2015_dy_1,EXTERIOR_LIGHTING_SCHEDULE_A_IECC2015_dy_3,EXTERIOR_LIGHTING_SCHEDULE_A_IECC2015_dy_3,EXTERIOR_LIGHTING_SCHEDULE_A_IECC2015_dy_3
WeekSchedule - Hourly,EXTERIOR_LIGHTING_SCHEDULE_B_2016_wk_1,EXTERIOR_LIGHTING_SCHEDULE_B_2016_dy_1,EXTERIOR_LIGHTING_SCHEDULE_B_2016_dy_1,EXTERIOR_LIGHTING_SCHEDULE_B_2016_dy_1,EXTERIOR_LIGHTING_SCHEDULE_B_2016_dy_1,EXTERIOR_LIGHTING_SCHEDULE_B_2016_dy_1,EXTERIOR_LIGHTING_SCHEDULE_B_2016_dy_1,EXTERIOR_LIGHTING_SCHEDULE_B_2016_dy_1,EXTERIOR_LIGHTING_SCHEDULE_B_2016_dy_1,EXTERIOR_LIGHTING_SCHEDULE_B_2016_dy_1,EXTERIOR_LIGHTING_SCHEDULE_B_2016_dy_1,EXTERIOR_LIGHTING_SCHEDULE_B_2016_dy_1,EXTERIOR_LIGHTING_SCHEDULE_B_2016_dy_1
WeekSchedule - Hourly,EXTERIOR_LIGHTING_SCHEDULE_C_2016_wk_1,EXTERIOR_LIGHTING_SCHEDULE_C_2016_dy_1,EXTERIOR_LIGHTING_SCHEDULE_C_2016_dy_1,EXTERIOR_LIGHTING_SCHEDULE_C_2016_dy_1,EXTERIOR_LIGHTING_SCHEDULE_C_2016_dy_1,EXTERIOR_LIGHTING_SCHEDULE_C_2016_dy_1,EXTERIOR_LIGHTING_SCHEDULE_C_2016_dy_1,EXTERIOR_LIGHTING_SCHEDULE_C_2016_dy_1,EXTERIOR_LIGHTING_SCHEDULE_C_2016_dy_1,EXTERIOR_LIGHTING_SCHEDULE_C_2016_dy_1,EXTERIOR_LIGHTING_SCHEDULE_C_2016_dy_1,EXTERIOR_LIGHTING_SCHEDULE_C_2016_dy_1,EXTERIOR_LIGHTING_SCHEDULE_C_2016_dy_1
Schedule - Hourly,BLDG_LIGHT_SCH,FRACTION,Through Dec 31,BLDG_LIGHT_SCH_wk_1
Schedule - Hourly,BLDG_EQUIP_SCH,FRACTION,Through Dec 31,BLDG_EQUIP_SCH_wk_1
Schedule - Hourly,BLDG_OCC_SCH,FRACTION,Through Dec 31,BLDG_OCC_SCH_wk_1
Schedule - Hourly,BLDG_OCC_SCH_W_SB,FRACTION,Through Dec 31,BLDG_OCC_SCH_W_SB_wk_1
Schedule - Hourly,BLDG_OCC_SCH_WO_SB,FRACTION,Through Dec 31,BLDG_OCC_SCH_WO_SB_wk_1
Schedule - Hourly,BINARY OCCUPANCY,FRACTION,Through Dec 31,BINARY OCCUPANCY_wk_1
Schedule - Hourly,INFIL_QUARTER_ON_SCH,FRACTION,Through Dec 31,INFIL_QUARTER_ON_SCH_wk_1
Schedule - Hourly,INFIL_DOOR_OPENING_SCH,FRACTION,Through Dec 31,INFIL_DOOR_OPENING_SCH_wk_1
Schedule - Hourly,BLDG_SWH_SCH,FRACTION,Through Dec 31,BLDG_SWH_SCH_wk_1
Schedule - Hourly,ALWAYS_ON,FRACTION,Through Dec 31,ALWAYS_ON_wk_1
Schedule - Hourly,EXTERIOR_LGT_ALWAYS_ON,FRACTION,Through Dec 31,EXTERIOR_LGT_ALWAYS_ON_wk_1
Schedule - Hourly,EXTERIOR_LGT_189_1,FRACTION,Through Dec 31,EXTERIOR_LGT_189_1_wk_1
Schedule - Hourly,ALWAYS_OFF,FRACTION,Through Dec 31,ALWAYS_OFF_wk_1
Schedule - Hourly,HVACOPERATIONSCHD,ON/OFF,Through Dec 31,HVACOPERATIONSCHD_wk_1
Schedule - Hourly,HVACOPERATIONSCHD_W_SB,FRACTION,Through Dec 31,HVACOPERATIONSCHD_W_SB_wk_1
Schedule - Hourly,PLANTONSCHED,ON/OFF,Through Dec 31,PLANTONSCHED_wk_1
Schedule - Hourly,REHEATCOILAVAILSCHED,FRACTION,Through Dec 31,REHEATCOILAVAILSCHED_wk_1
Schedule - Hourly,COOLINGCOILAVAILSCHED,FRACTION,Through Dec 31,COOLINGCOILAVAILSCHED_wk_1
Schedule - Hourly,HTGSETP_SCH_NO_OPTIMUM,TEMPERATURE,Through Dec 31,HTGSETP_SCH_NO_OPTIMUM_wk_1
Schedule - Hourly,HTGSETP_SCH_NO_OPTIMUM_W_SB,TEMPERATURE,Through Dec 31,HTGSETP_SCH_NO_OPTIMUM_W_SB_wk_1
Schedule - Hourly,HTGSETP_SCH_YES_OPTIMUM,TEMPERATURE,Through Dec 31,HTGSETP_SCH_YES_OPTIMUM_wk_1
Schedule - Hourly,CLGSETP_SCH_NO_OPTIMUM,TEMPERATURE,Through Dec 31,CLGSETP_SCH_NO_OPTIMUM_wk_1
Schedule - Hourly,CLGSETP_SCH_NO_OPTIMUM_W_SB,TEMPERATURE,Through Dec 31,CLGSETP_SCH_NO_OPTIMUM_W_SB_wk_1
Schedule - Hourly,CLGSETP_SCH_YES_OPTIMUM,TEMPERATURE,Through Dec 31,CLGSETP_SCH_YES_OPTIMUM_wk_1
Schedule - Hourly,CLGSETP_SCH_NO_SETBACK,TEMPERATURE,Through Dec 31,CLGSETP_SCH_NO_SETBACK_wk_1
Schedule - Hourly,HUMIDITY SETPOINT SCHEDULE,HUMIDITY,Through Dec 31,HUMIDITY SETPOINT SCHEDULE_wk_1
Schedule - Hourly,MINOA_MOTORIZEDDAMPER_SCHED,FRACTION,Through Dec 31,MINOA_MOTORIZEDDAMPER_SCHED_wk_1
Schedule - Hourly,MINOA_SCHED,FRACTION,Through Dec 31,MINOA_SCHED_wk_1
Schedule - Hourly,DUAL ZONE CONTROL TYPE SCHED,CONTROL TYPE,Through Dec 31,DUAL ZONE CONTROL TYPE SCHED_wk_1
Schedule - Hourly,SEASONAL-RESET-SUPPLY-AIR-TEMP-SCH,TEMPERATURE,Through Mar 31,SEASONAL-RESET-SUPPLY-AIR-TEMP-SCH_wk_1,Through Sep 30,SEASONAL-RESET-SUPPLY-AIR-TEMP-SCH_wk_2,Through Dec 31,SEASONAL-RESET-SUPPLY-AIR-TEMP-SCH_wk_3
Schedule - Hourly,CW-LOOP-TEMP-SCHEDULE,TEMPERATURE,Through Dec 31,CW-LOOP-TEMP-SCHEDULE_wk_1
Schedule - Hourly,HW-LOOP-TEMP-SCHEDULE,TEMPERATURE,Through Dec 31,HW-LOOP-TEMP-SCHEDULE_wk_1
Schedule - Hourly,HEATING-SUPPLY-AIR-TEMP-SCH,TEMPERATURE,Through Dec 31,HEATING-SUPPLY-AIR-TEMP-SCH_wk_1
Schedule - Hourly,ACTIVITY_SCH,ANY NUMBER,Through Dec 31,ACTIVITY_SCH_wk_1
Schedule - Hourly,WORK_EFF_SCH,FRACTION,Through Dec 31,WORK_EFF_SCH_wk_1
Schedule - Hourly,AIR_VELO_SCH,ANY NUMBER,Through Dec 31,AIR_VELO_SCH_wk_1
Schedule - Hourly,CLOTHING_SCH,ANY NUMBER,Through Apr 30,CLOTHING_SCH_wk_1,Through Sep 30,CLOTHING_SCH_wk_2,Through Dec 31,CLOTHING_SCH_wk_3
Schedule - Hourly,SHADING_SCH,ANY NUMBER,Through Dec 31,SHADING_SCH_wk_1
Schedule - Hourly,CORE_ZN WATER EQUIPMENT LATENT FRACT SCHED,FRACTION,Through Dec 31,CORE_ZN WATER EQUIPMENT LATENT FRACT SCHED_wk_1
Schedule - Hourly,CORE_ZN WATER EQUIPMENT SENSIBLE FRACT SCHED,FRACTION,Through Dec 31,CORE_ZN WATER EQUIPMENT SENSIBLE FRACT SCHED_wk_1
Schedule - Hourly,CORE_ZN WATER EQUIPMENT HOT SUPPLY TEMP SCHED,TEMPERATURE,Through Dec 31,CORE_ZN WATER EQUIPMENT HOT SUPPLY TEMP SCHED_wk_1
Schedule - Hourly,SHWSYS1-LOOP-TEMP-SCHEDULE,TEMPERATURE,Through Dec 31,SHWSYS1-LOOP-TEMP-SCHEDULE_wk_1
Schedule - Hourly,SHWSYS1 WATER HEATER SETPOINT TEMPERATURE SCHEDULE,TEMPERATURE,Through Dec 31,SHWSYS1 WATER HEATER SETPOINT TEMPERATURE SCHEDULE_wk_1
Schedule - Hourly,SHWSYS1 WATER HEATER AMBIENT TEMPERATURE SCHEDULE,TEMPERATURE,Through Dec 31,SHWSYS1 WATER HEATER AMBIENT TEMPERATURE SCHEDULE_wk_1
Schedule - Hourly,EXTERIOR_LIGHTING_SCHEDULE_A,FRACTION,Through Dec 31,EXTERIOR_LIGHTING_SCHEDULE_A_wk_1
Schedule - Hourly,EXTERIOR_LIGHTING_SCHEDULE_B,FRACTION,Through Dec 31,EXTERIOR_LIGHTING_SCHEDULE_B_wk_1
Schedule - Hourly,EXTERIOR_LIGHTING_SCHEDULE_A_IECC2015,FRACTION,Through Dec 31,EXTERIOR_LIGHTING_SCHEDULE_A_IECC2015_wk_1
Schedule - Hourly,EXTERIOR_LIGHTING_SCHEDULE_B_2016,FRACTION,Through Dec 31,EXTERIOR_LIGHTING_SCHEDULE_B_2016_wk_1
Schedule - Hourly,EXTERIOR_LIGHTING_SCHEDULE_C_2016,FRACTION,Through Dec 31,EXTERIOR_LIGHTING_SCHEDULE_C_2016_wk_1
! <Site:GroundTemperature:BuildingSurface>,Jan{C},Feb{C},Mar{C},Apr{C},May{C},Jun{C},Jul{C},Aug{C},Sep{C},Oct{C},Nov{C},Dec{C}
 Site:GroundTemperature:BuildingSurface,  18.00,  18.00,  18.00,  18.00,  18.00,  18.00,  18.00,  18.00,  18.00,  18.00,  18.00,  18.00
! <Site:GroundTemperature:FCfactorMethod>,Jan{C},Feb{C},Mar{C},Apr{C},May{C},Jun{C},Jul{C},Aug{C},Sep{C},Oct{C},Nov{C},Dec{C}
 Site:GroundTemperature:FCfactorMethod,   7.10,   3.00,  -1.00,   0.80,  -0.20,   4.80,   6.10,  13.70,  22.20,  22.70,  21.70,  18.50
! <Site:GroundTemperature:Shallow>,Jan{C},Feb{C},Mar{C},Apr{C},May{C},Jun{C},Jul{C},Aug{C},Sep{C},Oct{C},Nov{C},Dec{C}
 Site:GroundTemperature:Shallow,  13.00,  13.00,  13.00,  13.00,  13.00,  13.00,  13.00,  13.00,  13.00,  13.00,  13.00,  13.00
! <Site:GroundTemperature:Deep>,Jan{C},Feb{C},Mar{C},Apr{C},May{C},Jun{C},Jul{C},Aug{C},Sep{C},Oct{C},Nov{C},Dec{C}
 Site:GroundTemperature:Deep,  16.00,  16.00,  16.00,  16.00,  16.00,  16.00,  16.00,  16.00,  16.00,  16.00,  16.00,  16.00
! <Site:GroundReflectance>,Jan{dimensionless},Feb{dimensionless},Mar{dimensionless},Apr{dimensionless},May{dimensionless},Jun{dimensionless},Jul{dimensionless},Aug{dimensionless},Sep{dimensionless},Oct{dimensionless},Nov{dimensionless},Dec{dimensionless}
 Site:GroundReflectance,  0.20,  0.20,  0.20,  0.20,  0.20,  0.20,  0.20,  0.20,  0.20,  0.20,  0.20,  0.20
! <Site:GroundReflectance:SnowModifier>, Normal, Daylighting {dimensionless}
 Site:GroundReflectance:SnowModifier,   1.000,   1.000
! <Site:GroundReflectance:Snow>,Jan{dimensionless},Feb{dimensionless},Mar{dimensionless},Apr{dimensionless},May{dimensionless},Jun{dimensionless},Jul{dimensionless},Aug{dimensionless},Sep{dimensionless},Oct{dimensionless},Nov{dimensionless},Dec{dimensionless}
 Site:GroundReflectance:Snow,  0.20,  0.20,  0.20,  0.20,  0.20,  0.20,  0.20,  0.20,  0.20,  0.20,  0.20,  0.20
! <Site:GroundReflectance:Snow:Daylighting>,Jan{dimensionless},Feb{dimensionless},Mar{dimensionless},Apr{dimensionless},May{dimensionless},Jun{dimensionless},Jul{dimensionless},Aug{dimensionless},Sep{dimensionless},Oct{dimensionless},Nov{dimensionless},Dec{dimensionless}
 Site:GroundReflectance:Snow:Daylighting,  0.20,  0.20,  0.20,  0.20,  0.20,  0.20,  0.20,  0.20,  0.20,  0.20,  0.20,  0.20
! <Environment:Weather Station>,Wind Sensor Height Above Ground {m},Wind Speed Profile Exponent {},Wind Speed Profile Boundary Layer Thickness {m},Air Temperature Sensor Height Above Ground {m},Wind Speed Modifier Coefficient-Internal,Temperature Modifier Coefficient-Internal
Environment:Weather Station,10.000,0.140,270.000,1.500,1.586,9.750E-003
! <Site:Location>, Location Name, Latitude {N+/S- Deg}, Longitude {E+/W- Deg},  Time Zone Number {GMT+/-}, Elevation {m},  Standard Pressure at Elevation {Pa}, Standard RhoAir at Elevation
Site:Location,Denver Intl Ap CO USA TMY3 WMO#=725650,39.83,-104.65,-7.00,1650.00,83011,0.9866
! <Site Water Mains Temperature Information>,Calculation Method{},Water Mains Temperature Schedule Name{},Annual Average Outdoor Air Temperature{C},Maximum Difference In Monthly Average Outdoor Air Temperatures{deltaC},Fixed Default Water Mains Temperature{C}
Site Water Mains Temperature Information,Correlation,NA,9.95,23.70,NA
! <Building Information>, Building Name,North Axis {deg},Terrain,  Loads Convergence Tolerance Value,Temperature Convergence Tolerance Value,  Solar Distribution,Maximum Number of Warmup Days,Minimum Number of Warmup Days
 Building Information,OfficeSmall,0.000,City,4.00000E-002,0.20000,FullInteriorAndExterior,15,6
! <Inside Convection Algorithm>, Algorithm {Simple | TARP | CeilingDiffuser | AdaptiveConvectionAlgorithm}
Inside Convection Algorithm,TARP
! <Outside Convection Algorithm>, Algorithm {SimpleCombined | TARP | MoWitt | DOE-2 | AdaptiveConvectionAlgorithm}
Outside Convection Algorithm,TARP
! <Sky Radiance Distribution>, Value {Anisotropic}
Sky Radiance Distribution,Anisotropic
! <Zone Air Solution Algorithm>, Algorithm {ThirdOrderBackwardDifference | AnalyticalSolution | EulerMethod}, Space Heat Balance Sizing, Space Heat Balance Simulation
 Zone Air Solution Algorithm, ThirdOrderBackwardDifference, No, No
! <Zone Air Carbon Dioxide Balance Simulation>, Simulation {Yes/No}, Carbon Dioxide Concentration
 Zone Air Carbon Dioxide Balance Simulation, No,N/A
! <Zone Air Generic Contaminant Balance Simulation>, Simulation {Yes/No}, Generic Contaminant Concentration
 Zone Air Generic Contaminant Balance Simulation, No,N/A
! <Zone Air Mass Flow Balance Simulation>, Enforce Mass Balance, Adjust Zone Mixing and Return {AdjustMixingOnly | AdjustReturnOnly | AdjustMixingThenReturn | AdjustReturnThenMixing | None}, Adjust Zone Infiltration {AddInfiltration | AdjustInfiltration | None}, Infiltration Zones {MixingSourceZonesOnly | AllZones}
 Zone Air Mass Flow Balance Simulation, No,N/A,N/A,N/A
! <HVACSystemRootFindingAlgorithm>, Value {RegulaFalsi | Bisection | BisectionThenRegulaFalsi | RegulaFalsiThenBisection}
 HVACSystemRootFindingAlgorithm, RegulaFalsi
! <Environment:Site Atmospheric Variation>,Wind Speed Profile Exponent {},Wind Speed Profile Boundary Layer Thickness {m},Air Temperature Gradient Coefficient {K/m}
Environment:Site Atmospheric Variation,0.330,460.000,6.500000E-003
! <Shadowing/Sun Position Calculations Annual Simulations>, Shading Calculation Method, Shading Calculation Update Frequency Method, Shading Calculation Update Frequency {days}, Maximum Figures in Shadow Overlap Calculations {}, Polygon Clipping Algorithm, Pixel Counting Resolution, Sky Diffuse Modeling Algorithm, Output External Shading Calculation Results, Disable Self-Shading Within Shading Zone Groups, Disable Self-Shading From Shading Zone Groups to Other Zones
Shadowing/Sun Position Calculations Annual Simulations,PolygonClipping,Periodic,30,200,SutherlandHodgman,512,SimpleSkyDiffuseModeling,No,No,No
! <Surface Geometry>,Starting Corner,Vertex Input Direction,Coordinate System,Daylight Reference Point Coordinate System,Rectangular (Simple) Surface Coordinate System
 Surface Geometry,UpperLeftCorner,Counterclockwise,RelativeCoordinateSystem,RelativeCoordinateSystem,RelativeToZoneOrigin
! <Surface Heat Transfer Algorithm>, Value {CTF - ConductionTransferFunction | EMPD - MoisturePenetrationDepthConductionTransferFunction | CondFD - ConductionFiniteDifference | HAMT - CombinedHeatAndMoistureFiniteElement} - Description,Inside Surface Max Temperature Limit{C}, Surface Convection Coefficient Lower Limit {W/m2-K}, Surface Convection Coefficient Upper Limit {W/m2-K}
Surface Heat Transfer Algorithm, CTF - ConductionTransferFunction,200,0.10,1000.0
! <Shading Summary>, Number of Fixed Detached Shades, Number of Building Detached Shades, Number of Attached Shades
 Shading Summary,0,0,0
! <Zone Summary>, Number of Zones, Number of Zone Surfaces, Number of SubSurfaces
 Zone Summary,6,71,23
! <Zone Information>,Zone Name,North Axis {deg},Origin X-Coordinate {m},Origin Y-Coordinate {m},Origin Z-Coordinate {m},Centroid X-Coordinate {m},Centroid Y-Coordinate {m},Centroid Z-Coordinate {m},Type,Zone Multiplier,Zone List Multiplier,Minimum X {m},Maximum X {m},Minimum Y {m},Maximum Y {m},Minimum Z {m},Maximum Z {m},Ceiling Height {m},Volume {m3},Zone Inside Convection Algorithm {Simple-Detailed-CeilingDiffuser-TrombeWall},Zone Outside Convection Algorithm {Simple-Detailed-Tarp-MoWitt-DOE-2-BLAST}, Floor Area {m2},Exterior Gross Wall Area {m2},Exterior Net Wall Area {m2},Exterior Window Area {m2}, Number of Surfaces, Number of SubSurfaces, Number of Shading SubSurfaces,  Part of Total Building Area
 Zone Information, CORE_ZN,0.0,0.00,0.00,0.00,13.85,9.23,1.53,1,1,1,5.00,22.69,5.00,13.46,0.00,3.05,3.05,456.46,TARP,TARP,149.66,0.00,0.00,0.00,6,0,0,Yes
 Zone Information, PERIMETER_ZN_1,0.0,0.00,0.00,0.00,13.85,2.21,1.53,1,1,1,0.00,27.69,0.00,5.00,0.00,3.05,3.05,346.02,TARP,TARP,113.45,84.45,63.82,20.64,6,7,0,Yes
 Zone Information, PERIMETER_ZN_2,0.0,0.00,0.00,0.00,25.64,9.23,1.53,1,1,1,22.69,27.69,0.00,18.46,0.00,3.05,3.05,205.27,TARP,TARP,67.30,56.30,45.15,11.16,6,4,0,Yes
 Zone Information, PERIMETER_ZN_3,0.0,0.00,0.00,0.00,13.85,16.25,1.53,1,1,1,0.00,27.69,13.46,18.46,0.00,3.05,3.05,346.02,TARP,TARP,113.45,84.45,63.82,16.73,6,8,0,Yes
 Zone Information, PERIMETER_ZN_4,0.0,0.00,0.00,0.00,2.05,9.23,1.53,1,1,1,0.00,5.00,0.00,18.46,0.00,3.05,3.05,205.27,TARP,TARP,67.30,56.30,45.15,11.16,6,4,0,Yes
 Zone Information, ATTIC,0.0,0.00,0.00,0.00,13.85,9.23,3.70,1,1,1,-0.60,28.29,-0.60,19.06,3.05,6.33,1.64,720.19,TARP,TARP,567.98,0.00,0.00,0.00,13,0,0,No
! <Zone Internal Gains Nominal>,Zone Name, Floor Area {m2},# Occupants,Area per Occupant {m2/person},Occupant per Area {person/m2},Interior Lighting {W/m2},Electric Load {W/m2},Gas Load {W/m2},Other Load {W/m2},Hot Water Eq {W/m2},Steam Equipment {W/m2},Sum Loads per Area {W/m2},Outdoor Controlled Baseboard Heat
 Zone Internal Gains Nominal, CORE_ZN,149.66,9.0,16.588,6.028E-002,6.889,6.780,0.000,0.000,0.000,0.000,13.669,No
 Zone Internal Gains Nominal, PERIMETER_ZN_1,113.45,6.8,16.588,6.028E-002,6.889,6.780,0.000,0.000,0.000,0.000,13.669,No
 Zone Internal Gains Nominal, PERIMETER_ZN_2,67.30,4.1,16.588,6.028E-002,6.889,6.780,0.000,0.000,0.000,0.000,13.669,No
 Zone Internal Gains Nominal, PERIMETER_ZN_3,113.45,6.8,16.588,6.028E-002,6.889,6.780,0.000,0.000,0.000,0.000,13.669,No
 Zone Internal Gains Nominal, PERIMETER_ZN_4,67.30,4.1,16.588,6.028E-002,6.889,6.780,0.000,0.000,0.000,0.000,13.669,No
 Zone Internal Gains Nominal, ATTIC,567.98,0.0,N/A,0.000,0.000,0.000,0.000,0.000,0.000,0.000,0.000,No
! <People Internal Gains Nominal>,Name,Schedule Name,Zone Name,Zone Floor Area {m2},# Zone Occupants,Number of People {},People/Floor Area {person/m2},Floor Area per person {m2/person},Fraction Radiant,Fraction Convected,Sensible Fraction Calculation,Activity level,ASHRAE 55 Warnings,Carbon Dioxide Generation Rate,Minimum Number of People for All Day Types,Maximum Number of People for All Day Types,Minimum Number of People for Weekdays, Maximum Number of People for Weekdays, Minimum Number of People for Weekends/Holidays, Maximum Number of People for Weekends /Holidays,Minimum Number of People for Summer Design Days, Maximum Number of People for Summer Design Days,Minimum Number of People for Winter Design Days, Maximum Number of People for Winter Design Days
 People Internal Gains Nominal, CORE_ZN,BLDG_OCC_SCH_WO_SB,CORE_ZN,149.66,9.0,9.0,6.028E-002,16.588,0.300,0.700,AutoCalculate,ACTIVITY_SCH,No,3.8200E-008,0.0,9.0,0.0,9.0,0.0,0.0,9.0,9.0,0.0,0.0,
 People Internal Gains Nominal, PERIMETER_ZN_1,BLDG_OCC_SCH_WO_SB,PERIMETER_ZN_1,113.45,6.8,6.8,6.028E-002,16.588,0.300,0.700,AutoCalculate,ACTIVITY_SCH,No,3.8200E-008,0.0,6.8,0.0,6.8,0.0,0.0,6.8,6.8,0.0,0.0,
 People Internal Gains Nominal, PERIMETER_ZN_2,BLDG_OCC_SCH_W_SB,PERIMETER_ZN_2,67.30,4.1,4.1,6.028E-002,16.588,0.300,0.700,AutoCalculate,ACTIVITY_SCH,No,3.8200E-008,0.0,4.1,0.0,4.1,0.0,0.0,4.1,4.1,0.0,0.0,
 People Internal Gains Nominal, PERIMETER_ZN_3,BLDG_OCC_SCH_WO_SB,PERIMETER_ZN_3,113.45,6.8,6.8,6.028E-002,16.588,0.300,0.700,AutoCalculate,ACTIVITY_SCH,No,3.8200E-008,0.0,6.8,0.0,6.8,0.0,0.0,6.8,6.8,0.0,0.0,
 People Internal Gains Nominal, PERIMETER_ZN_4,BLDG_OCC_SCH_WO_SB,PERIMETER_ZN_4,67.30,4.1,4.1,6.028E-002,16.588,0.300,0.700,AutoCalculate,ACTIVITY_SCH,No,3.8200E-008,0.0,4.1,0.0,4.1,0.0,0.0,4.1,4.1,0.0,0.0,
! <Lights Internal Gains Nominal>,Name,Schedule Name,Zone Name,Zone Floor Area {m2},# Zone Occupants,Lighting Level {W},Lights/Floor Area {W/m2},Lights per person {W/person},Fraction Return Air,Fraction Radiant,Fraction Short Wave,Fraction Convected,Fraction Replaceable,End-Use, Minimum Lighting Level for All Day Types {W},Maximum Lighting Level for All Day Types {W},Minimum Lighting Level for Weekdays {W}, Maximum Lighting Level for Weekdays {W},Minimum Lighting Level for Weekends/Holidays {W}, Maximum Lighting Level for Weekends /Holidays {W},Minimum Lighting Level for Summer Design Days {W}, Maximum Lighting Level for Summer Design Days {W},Minimum Lighting Level for Winter Design Days {W}, Maximum Lighting Level for Winter Design Days {W}
 Lights Internal Gains Nominal, CORE_ZN_LIGHTS,BLDG_LIGHT_SCH,CORE_ZN,149.66,9.0,1030.975,6.889,114.274,0.000,0.700,0.200,0.100,1.000,LightsWired,0.000,1030.975,184.175,720.7,185.576,185.576,1030.975,1030.975,0.000,0.000
 Lights Internal Gains Nominal, PERIMETER_ZN_1_LIGHTS,BLDG_LIGHT_SCH,PERIMETER_ZN_1,113.45,6.8,781.546,6.889,114.274,0.000,0.700,0.200,0.100,1.000,LightsWired,0.000,781.546,139.616,546.3,140.678,140.678,781.546,781.546,0.000,0.000
 Lights Internal Gains Nominal, PERIMETER_ZN_2_LIGHTS,BLDG_LIGHT_SCH,PERIMETER_ZN_2,67.30,4.1,463.623,6.889,114.274,0.000,0.700,0.200,0.100,1.000,LightsWired,0.000,463.623,82.822,324.1,83.452,83.452,463.623,463.623,0.000,0.000
 Lights Internal Gains Nominal, PERIMETER_ZN_3_LIGHTS,BLDG_LIGHT_SCH,PERIMETER_ZN_3,113.45,6.8,781.546,6.889,114.274,0.000,0.700,0.200,0.100,1.000,LightsWired,0.000,781.546,139.616,546.3,140.678,140.678,781.546,781.546,0.000,0.000
 Lights Internal Gains Nominal, PERIMETER_ZN_4_LIGHTS,BLDG_LIGHT_SCH,PERIMETER_ZN_4,67.30,4.1,463.623,6.889,114.274,0.000,0.700,0.200,0.100,1.000,LightsWired,0.000,463.623,82.822,324.1,83.452,83.452,463.623,463.623,0.000,0.000
! <ElectricEquipment Internal Gains Nominal>,Name,Schedule Name,Zone Name,Zone Floor Area {m2},# Zone Occupants,Equipment Level {W},Equipment/Floor Area {W/m2},Equipment per person {W/person},Fraction Latent,Fraction Radiant,Fraction Lost,Fraction Convected,End-Use SubCategory,Minimum Equipment Level for All Day Types {W},Maximum Equipment Level for All Day Types {W},Minimum Equipment Level for Weekdays {W}, Maximum Equipment Level for Weekdays {W},Minimum Equipment Level for Weekends/Holidays {W}, Maximum Equipment Level for Weekends /Holidays {W},Minimum Equipment Level for Summer Design Days {W}, Maximum Equipment Level for Summer Design Days {W},Minimum Equipment Level for Winter Design Days {W}, Maximum Equipment Level for Winter Design Days {W}
 ElectricEquipment Internal Gains Nominal, CORE_ZN_MISCPLUG_EQUIP,BLDG_EQUIP_SCH,CORE_ZN,149.66,9.0,1014.677,6.780,112.467,0.000,0.000,0.000,1.000,MiscPlug,0.000,1014.677,166.195,973.588,166.195,166.195,1014.677,1014.677,0.000,0.000
 ElectricEquipment Internal Gains Nominal, PERIMETER_ZN_1_MISCPLUG_EQUIP,BLDG_EQUIP_SCH,PERIMETER_ZN_1,113.45,6.8,769.191,6.780,112.467,0.000,0.000,0.000,1.000,MiscPlug,0.000,769.191,125.987,738.043,125.987,125.987,769.191,769.191,0.000,0.000
 ElectricEquipment Internal Gains Nominal, PERIMETER_ZN_2_MISCPLUG_EQUIP,BLDG_EQUIP_SCH,PERIMETER_ZN_2,67.30,4.1,456.294,6.780,112.467,0.000,0.000,0.000,1.000,MiscPlug,0.000,456.294,74.737,437.816,74.737,74.737,456.294,456.294,0.000,0.000
 ElectricEquipment Internal Gains Nominal, PERIMETER_ZN_3_MISCPLUG_EQUIP,BLDG_EQUIP_SCH,PERIMETER_ZN_3,113.45,6.8,769.191,6.780,112.467,0.000,0.000,0.000,1.000,MiscPlug,0.000,769.191,125.987,738.043,125.987,125.987,769.191,769.191,0.000,0.000
 ElectricEquipment Internal Gains Nominal, PERIMETER_ZN_4_MISCPLUG_EQUIP,BLDG_EQUIP_SCH,PERIMETER_ZN_4,67.30,4.1,456.294,6.780,112.467,0.000,0.000,0.000,1.000,MiscPlug,0.000,456.294,74.737,437.816,74.737,74.737,456.294,456.294,0.000,0.000
! <Enclosure/Window Adjacency Daylighting Counts>, Enclosure Name, Number of Exterior Windows, Number of Exterior Windows in Adjacent Enclosures
Enclosure/Window Adjacency Daylighting Counts, PERIMETER_1_SPACE,7,0
Enclosure/Window Adjacency Daylighting Counts, PERIMETER_2_SPACE,4,0
Enclosure/Window Adjacency Daylighting Counts, PERIMETER_3_SPACE,6,0
Enclosure/Window Adjacency Daylighting Counts, PERIMETER_4_SPACE,4,0
! <Enclosure/Window Adjacency Daylighting Matrix>, Enclosure Name, Number of Adjacent Enclosures with Windows,Adjacent Enclosure Names - 1st 100 (max)
Enclosure/Window Adjacency Daylighting Matrix, PERIMETER_1_SPACE,0
Enclosure/Window Adjacency Daylighting Matrix, PERIMETER_2_SPACE,0
Enclosure/Window Adjacency Daylighting Matrix, PERIMETER_3_SPACE,0
Enclosure/Window Adjacency Daylighting Matrix, PERIMETER_4_SPACE,0
! <Water Heater Information>,Type,Name,Volume {m3},Maximum Capacity {W},Standard Rated Recovery Efficiency, Standard Rated Energy Factor
! <ZoneInfiltration Airflow Stats Nominal>,Name,Input Object, Schedule Name,Zone Name, Zone Floor Area {m2}, # Zone Occupants,Design Volume Flow Rate {m3/s},Volume Flow Rate/Floor Area {m3/s-m2},Volume Flow Rate/Exterior Surface Area {m3/s-m2},ACH - Air Changes per Hour,Equation A - Constant Term Coefficient {},Equation B - Temperature Term Coefficient {1/C},Equation C - Velocity Term Coefficient {s/m}, Equation D - Velocity Squared Term Coefficient {s2/m2}
 ZoneInfiltration Airflow Stats Nominal, PERIMETER_ZN_1_INFILTRATION,ZoneInfiltration:DesignFlowRate,INFIL_QUARTER_ON_SCH,PERIMETER_ZN_1,113.45,6.8,4.805E-002,4.235E-004,5.690E-004,0.500,0.000,0.000,0.224,0.000
 ZoneInfiltration Airflow Stats Nominal, PERIMETER_ZN_1_DOOR_INFILTRATION,ZoneInfiltration:DesignFlowRate,INFIL_DOOR_OPENING_SCH,PERIMETER_ZN_1,113.45,6.8,7.646E-002,6.739E-004,9.053E-004,0.795,1.000,0.000,0.000,0.000
 ZoneInfiltration Airflow Stats Nominal, PERIMETER_ZN_2_INFILTRATION,ZoneInfiltration:DesignFlowRate,INFIL_QUARTER_ON_SCH,PERIMETER_ZN_2,67.30,4.1,3.203E-002,4.760E-004,5.690E-004,0.562,0.000,0.000,0.224,0.000
 ZoneInfiltration Airflow Stats Nominal, PERIMETER_ZN_3_INFILTRATION,ZoneInfiltration:DesignFlowRate,INFIL_QUARTER_ON_SCH,PERIMETER_ZN_3,113.45,6.8,4.805E-002,4.235E-004,5.438E-004,0.500,0.000,0.000,0.224,0.000
 ZoneInfiltration Airflow Stats Nominal, PERIMETER_ZN_4_INFILTRATION,ZoneInfiltration:DesignFlowRate,INFIL_QUARTER_ON_SCH,PERIMETER_ZN_4,67.30,4.1,3.203E-002,4.760E-004,5.690E-004,0.562,0.000,0.000,0.224,0.000
 ZoneInfiltration Airflow Stats Nominal, ATTIC_INFILTRATION,ZoneInfiltration:DesignFlowRate,ALWAYS_ON,ATTIC,567.98,0.0,0.200,3.523E-004,3.052E-004,1.000,1.000,0.000,0.000,0.000
! <AirFlow Model>, Simple
 AirFlow Model, Simple
! <RoomAir Model>, Zone Name, Mixing/Mundt/UCSDDV/UCSDCV/UCSDUFI/UCSDUFE/User Defined
RoomAir Model,CORE_ZN,Mixing/Well-Stirred
RoomAir Model,PERIMETER_ZN_1,Mixing/Well-Stirred
RoomAir Model,PERIMETER_ZN_2,Mixing/Well-Stirred
RoomAir Model,PERIMETER_ZN_3,Mixing/Well-Stirred
RoomAir Model,PERIMETER_ZN_4,Mixing/Well-Stirred
RoomAir Model,ATTIC,Mixing/Well-Stirred
! <AirflowNetwork Model:Control>, No Multizone or Distribution/Multizone with Distribution/Multizone without Distribution/Multizone with Distribution only during Fan Operation
AirflowNetwork Model:Control,NoMultizoneOrDistribution
! <Zone Volume Capacitance Multiplier>, Sensible Heat Capacity Multiplier, Moisture Capacity Multiplier, Carbon Dioxide Capacity Multiplier, Generic Contaminant Capacity Multiplier
Zone Volume Capacitance Multiplier,   1.000 ,   1.000,   1.000,   1.000
! <Load Timesteps in Zone Design Calculation Averaging Window>, Value
 Load Timesteps in Zone Design Calculation Averaging Window,    6
! <Heating Sizing Factor Information>, Sizing Factor ID, Value
 Heating Sizing Factor Information, Global,          1.2
 Heating Sizing Factor Information, Zone CORE_ZN,          1.2
 Heating Sizing Factor Information, Zone PERIMETER_ZN_1,          1.2
 Heating Sizing Factor Information, Zone PERIMETER_ZN_2,          1.2
 Heating Sizing Factor Information, Zone PERIMETER_ZN_3,          1.2
 Heating Sizing Factor Information, Zone PERIMETER_ZN_4,          1.2
! <Cooling Sizing Factor Information>, Sizing Factor ID, Value
 Cooling Sizing Factor Information, Global,          1.2
 Cooling Sizing Factor Information, Zone CORE_ZN,          1.2
 Cooling Sizing Factor Information, Zone PERIMETER_ZN_1,          1.2
 Cooling Sizing Factor Information, Zone PERIMETER_ZN_2,          1.2
 Cooling Sizing Factor Information, Zone PERIMETER_ZN_3,          1.2
 Cooling Sizing Factor Information, Zone PERIMETER_ZN_4,          1.2
! <Sky Daylight Factors>, Sky Type, MonthAndDay, Daylighting Control Name, Enclosure Name, Window Name, Reference Point, Daylight Factor
 Sky Daylight Factors,Clear Sky,12/21,PERIMETER_ZN_1_DAYLCTRL,PERIMETER_1_SPACE,PERIMETER_ZN_1_WALL_SOUTH_WINDOW_1,PERIMETER_ZN_1_DAYLREFPT1,2.0843E-003
 Sky Daylight Factors,Clear Sky,12/21,PERIMETER_ZN_1_DAYLCTRL,PERIMETER_1_SPACE,PERIMETER_ZN_1_WALL_SOUTH_WINDOW_1,PERIMETER_ZN_1_DAYLREFPT2,2.3258E-003
 Sky Daylight Factors,Clear Turbid Sky,12/21,PERIMETER_ZN_1_DAYLCTRL,PERIMETER_1_SPACE,PERIMETER_ZN_1_WALL_SOUTH_WINDOW_1,PERIMETER_ZN_1_DAYLREFPT1,2.2966E-003
 Sky Daylight Factors,Clear Turbid Sky,12/21,PERIMETER_ZN_1_DAYLCTRL,PERIMETER_1_SPACE,PERIMETER_ZN_1_WALL_SOUTH_WINDOW_1,PERIMETER_ZN_1_DAYLREFPT2,2.5201E-003
[...]
 DX Cooling Coil AHRI 2023 Standard Rating Information, Coil:Cooling:DX:SingleSpeed, PSZ-AC:1 HEAT PUMP DX COOLING COIL, 5353.9, 3.15, 10.75, 11.21, 10.91, 10.3
 Component Sizing Information, AirLoopHVAC:UnitaryHeatPump:AirToAir, PSZ-AC:1_HEATPUMP, Supply Air Flow Rate [m3/s], 0.34301
 Component Sizing Information, AirLoopHVAC:UnitaryHeatPump:AirToAir, PSZ-AC:1_HEATPUMP, Supply Air Flow Rate During Heating Operation [m3/s], 0.34301
 Component Sizing Information, AirLoopHVAC:UnitaryHeatPump:AirToAir, PSZ-AC:1_HEATPUMP, Supply Air Flow Rate During Cooling Operation [m3/s], 0.34301
 Component Sizing Information, AirLoopHVAC:UnitaryHeatPump:AirToAir, PSZ-AC:1_HEATPUMP, Supply Air Flow Rate When No Cooling or Heating is Needed [m3/s], 0.34301
 Component Sizing Information, AirLoopHVAC:UnitaryHeatPump:AirToAir, PSZ-AC:1_HEATPUMP, Nominal Heating Capacity [W], 5677.95745
 Component Sizing Information, AirLoopHVAC:UnitaryHeatPump:AirToAir, PSZ-AC:1_HEATPUMP, Nominal Cooling Capacity [W], 5677.95745
 Component Sizing Information, AirLoopHVAC:UnitaryHeatPump:AirToAir, PSZ-AC:1_HEATPUMP, Maximum Supply Air Temperature from Supplemental Heater [C], 40.00000
 Component Sizing Information, AirLoopHVAC:UnitaryHeatPump:AirToAir, PSZ-AC:1_HEATPUMP, Supplemental Heating Coil Nominal Capacity [W], 3712.45042
 Component Sizing Information, AirLoopHVAC:UnitaryHeatPump:AirToAir, PSZ-AC:1_HEATPUMP, Fraction of Supply Air Flow That Goes Through the Controlling Zone, 1.00000
 Component Sizing Information, Fan:OnOff, PSZ-AC:1 FAN, Design Size Maximum Flow Rate [m3/s], 0.34301
 Component Sizing Information, Fan:OnOff, PSZ-AC:1 FAN, Design Electric Power Consumption [W], 384.20309
 Component Sizing Information, Coil:Heating:DX:SingleSpeed, PSZ-AC:1 HEAT PUMP DX HEATING COIL, Design Size Rated Air Flow Rate [m3/s], 0.34301
 Component Sizing Information, Coil:Heating:DX:SingleSpeed, PSZ-AC:1 HEAT PUMP DX HEATING COIL, Design Size Gross Rated Heating Capacity [W], 5677.95745
! <DX Heating Coil Standard Rating Information>, Component Type, Component Name, High Temperature Heating (net) Rating Capacity {W}, Low Temperature Heating (net) Rating Capacity {W}, HSPF {Btu/W-h}, Region Number
 DX Heating Coil Standard Rating Information, Coil:Heating:DX:SingleSpeed, PSZ-AC:1 HEAT PUMP DX HEATING COIL, 5950.1, 3313.8, 7.33, 4
! <DX Heating Coil AHRI 2023 Standard Rating Information>, Component Type, Component Name, High Temperature Heating (net) Rating Capacity {W}, Low Temperature Heating (net) Rating Capacity {W}, HSPF2 {Btu/W-h}, Region Number
 DX Heating Coil AHRI 2023 Standard Rating Information, Coil:Heating:DX:SingleSpeed, PSZ-AC:1 HEAT PUMP DX HEATING COIL, 6005.3, 3369.1, 6.63, 4
 Component Sizing Information, Coil:Heating:Fuel, PSZ-AC:1 HEAT PUMP DX SUPP HEATING COIL, Design Size Nominal Capacity [W], 3712.45042
 Component Sizing Information, Controller:OutdoorAir, PSZ-AC:2_OA_CONTROLLER, Maximum Outdoor Air Flow Rate [m3/s], 0.31214
 Component Sizing Information, Controller:OutdoorAir, PSZ-AC:2_OA_CONTROLLER, Minimum Outdoor Air Flow Rate [m3/s], 4.89846E-002
 Component Sizing Information, Coil:Cooling:DX:SingleSpeed, PSZ-AC:2 HEAT PUMP DX COOLING COIL, Design Size Rated Air Flow Rate [m3/s], 0.31214
 Component Sizing Information, Coil:Cooling:DX:SingleSpeed, PSZ-AC:2 HEAT PUMP DX COOLING COIL, Design Size Gross Rated Total Cooling Capacity [W], 5167.02668
 Component Sizing Information, Coil:Cooling:DX:SingleSpeed, PSZ-AC:2 HEAT PUMP DX COOLING COIL, Design Size Gross Rated Sensible Heat Ratio, 0.85985
 DX Cooling Coil Standard Rating Information, Coil:Cooling:DX:SingleSpeed, PSZ-AC:2 HEAT PUMP DX COOLING COIL, 4922.4, 3.29, 11.22, 11.74, 11.10, 11.0
 DX Cooling Coil AHRI 2023 Standard Rating Information, Coil:Cooling:DX:SingleSpeed, PSZ-AC:2 HEAT PUMP DX COOLING COIL, 4872.1, 3.15, 10.75, 11.21, 10.91, 10.3
 Component Sizing Information, AirLoopHVAC:UnitaryHeatPump:AirToAir, PSZ-AC:2_HEATPUMP, Supply Air Flow Rate [m3/s], 0.31214
 Component Sizing Information, AirLoopHVAC:UnitaryHeatPump:AirToAir, PSZ-AC:2_HEATPUMP, Supply Air Flow Rate During Heating Operation [m3/s], 0.31214
 Component Sizing Information, AirLoopHVAC:UnitaryHeatPump:AirToAir, PSZ-AC:2_HEATPUMP, Supply Air Flow Rate During Cooling Operation [m3/s], 0.31214
 Component Sizing Information, AirLoopHVAC:UnitaryHeatPump:AirToAir, PSZ-AC:2_HEATPUMP, Supply Air Flow Rate When No Cooling or Heating is Needed [m3/s], 0.31214
 Component Sizing Information, AirLoopHVAC:UnitaryHeatPump:AirToAir, PSZ-AC:2_HEATPUMP, Nominal Heating Capacity [W], 5167.02668
 Component Sizing Information, AirLoopHVAC:UnitaryHeatPump:AirToAir, PSZ-AC:2_HEATPUMP, Nominal Cooling Capacity [W], 5167.02668
 Component Sizing Information, AirLoopHVAC:UnitaryHeatPump:AirToAir, PSZ-AC:2_HEATPUMP, Maximum Supply Air Temperature from Supplemental Heater [C], 40.00000
 Component Sizing Information, AirLoopHVAC:UnitaryHeatPump:AirToAir, PSZ-AC:2_HEATPUMP, Supplemental Heating Coil Nominal Capacity [W], 5239.46720
 Component Sizing Information, AirLoopHVAC:UnitaryHeatPump:AirToAir, PSZ-AC:2_HEATPUMP, Fraction of Supply Air Flow That Goes Through the Controlling Zone, 1.00000
 Component Sizing Information, Fan:OnOff, PSZ-AC:2 FAN, Design Size Maximum Flow Rate [m3/s], 0.31214
 Component Sizing Information, Fan:OnOff, PSZ-AC:2 FAN, Design Electric Power Consumption [W], 349.63059
 Component Sizing Information, Coil:Heating:DX:SingleSpeed, PSZ-AC:2 HEAT PUMP DX HEATING COIL, Design Size Rated Air Flow Rate [m3/s], 0.31214
 Component Sizing Information, Coil:Heating:DX:SingleSpeed, PSZ-AC:2 HEAT PUMP DX HEATING COIL, Design Size Gross Rated Heating Capacity [W], 5167.02668
 DX Heating Coil Standard Rating Information, Coil:Heating:DX:SingleSpeed, PSZ-AC:2 HEAT PUMP DX HEATING COIL, 5414.7, 3015.6, 7.32, 4
 DX Heating Coil AHRI 2023 Standard Rating Information, Coil:Heating:DX:SingleSpeed, PSZ-AC:2 HEAT PUMP DX HEATING COIL, 5465.0, 3065.9, 6.63, 4
 Component Sizing Information, Coil:Heating:Fuel, PSZ-AC:2 HEAT PUMP DX SUPP HEATING COIL, Design Size Nominal Capacity [W], 5239.46720
 Component Sizing Information, Controller:OutdoorAir, PSZ-AC:3_OA_CONTROLLER, Maximum Outdoor Air Flow Rate [m3/s], 0.24982
 Component Sizing Information, Controller:OutdoorAir, PSZ-AC:3_OA_CONTROLLER, Minimum Outdoor Air Flow Rate [m3/s], 2.90583E-002
 Component Sizing Information, Coil:Cooling:DX:SingleSpeed, PSZ-AC:3 HEAT PUMP DX COOLING COIL, Design Size Rated Air Flow Rate [m3/s], 0.24982
 Component Sizing Information, Coil:Cooling:DX:SingleSpeed, PSZ-AC:3 HEAT PUMP DX COOLING COIL, Design Size Gross Rated Total Cooling Capacity [W], 4135.40395
 Component Sizing Information, Coil:Cooling:DX:SingleSpeed, PSZ-AC:3 HEAT PUMP DX COOLING COIL, Design Size Gross Rated Sensible Heat Ratio, 0.85985
 DX Cooling Coil Standard Rating Information, Coil:Cooling:DX:SingleSpeed, PSZ-AC:3 HEAT PUMP DX COOLING COIL, 3939.6, 3.29, 11.22, 11.74, 11.10, 11.0
 DX Cooling Coil AHRI 2023 Standard Rating Information, Coil:Cooling:DX:SingleSpeed, PSZ-AC:3 HEAT PUMP DX COOLING COIL, 3899.4, 3.15, 10.75, 11.21, 10.91, 10.3
 Component Sizing Information, AirLoopHVAC:UnitaryHeatPump:AirToAir, PSZ-AC:3_HEATPUMP, Supply Air Flow Rate [m3/s], 0.24982
 Component Sizing Information, AirLoopHVAC:UnitaryHeatPump:AirToAir, PSZ-AC:3_HEATPUMP, Supply Air Flow Rate During Heating Operation [m3/s], 0.24982
 Component Sizing Information, AirLoopHVAC:UnitaryHeatPump:AirToAir, PSZ-AC:3_HEATPUMP, Supply Air Flow Rate During Cooling Operation [m3/s], 0.24982
 Component Sizing Information, AirLoopHVAC:UnitaryHeatPump:AirToAir, PSZ-AC:3_HEATPUMP, Supply Air Flow Rate When No Cooling or Heating is Needed [m3/s], 0.24982
 Component Sizing Information, AirLoopHVAC:UnitaryHeatPump:AirToAir, PSZ-AC:3_HEATPUMP, Nominal Heating Capacity [W], 4135.40395
 Component Sizing Information, AirLoopHVAC:UnitaryHeatPump:AirToAir, PSZ-AC:3_HEATPUMP, Nominal Cooling Capacity [W], 4135.40395
 Component Sizing Information, AirLoopHVAC:UnitaryHeatPump:AirToAir, PSZ-AC:3_HEATPUMP, Maximum Supply Air Temperature from Supplemental Heater [C], 40.00000
 Component Sizing Information, AirLoopHVAC:UnitaryHeatPump:AirToAir, PSZ-AC:3_HEATPUMP, Supplemental Heating Coil Nominal Capacity [W], 3167.74766
 Component Sizing Information, AirLoopHVAC:UnitaryHeatPump:AirToAir, PSZ-AC:3_HEATPUMP, Fraction of Supply Air Flow That Goes Through the Controlling Zone, 1.00000
 Component Sizing Information, Fan:OnOff, PSZ-AC:3 FAN, Design Size Maximum Flow Rate [m3/s], 0.24982
 Component Sizing Information, Fan:OnOff, PSZ-AC:3 FAN, Design Electric Power Consumption [W], 279.82509
 Component Sizing Information, Coil:Heating:DX:SingleSpeed, PSZ-AC:3 HEAT PUMP DX HEATING COIL, Design Size Rated Air Flow Rate [m3/s], 0.24982
 Component Sizing Information, Coil:Heating:DX:SingleSpeed, PSZ-AC:3 HEAT PUMP DX HEATING COIL, Design Size Gross Rated Heating Capacity [W], 4135.40395
 DX Heating Coil Standard Rating Information, Coil:Heating:DX:SingleSpeed, PSZ-AC:3 HEAT PUMP DX HEATING COIL, 4333.6, 2413.6, 7.33, 4
 DX Heating Coil AHRI 2023 Standard Rating Information, Coil:Heating:DX:SingleSpeed, PSZ-AC:3 HEAT PUMP DX HEATING COIL, 4373.8, 2453.8, 6.63, 4
 Component Sizing Information, Coil:Heating:Fuel, PSZ-AC:3 HEAT PUMP DX SUPP HEATING COIL, Design Size Nominal Capacity [W], 3167.74766
 Component Sizing Information, Controller:OutdoorAir, PSZ-AC:4_OA_CONTROLLER, Maximum Outdoor Air Flow Rate [m3/s], 0.28522
 Component Sizing Information, Controller:OutdoorAir, PSZ-AC:4_OA_CONTROLLER, Minimum Outdoor Air Flow Rate [m3/s], 4.89846E-002
 Component Sizing Information, Coil:Cooling:DX:SingleSpeed, PSZ-AC:4 HEAT PUMP DX COOLING COIL, Design Size Rated Air Flow Rate [m3/s], 0.28522
 Component Sizing Information, Coil:Cooling:DX:SingleSpeed, PSZ-AC:4 HEAT PUMP DX COOLING COIL, Design Size Gross Rated Total Cooling Capacity [W], 4721.48135
 Component Sizing Information, Coil:Cooling:DX:SingleSpeed, PSZ-AC:4 HEAT PUMP DX COOLING COIL, Design Size Gross Rated Sensible Heat Ratio, 0.85985
 DX Cooling Coil Standard Rating Information, Coil:Cooling:DX:SingleSpeed, PSZ-AC:4 HEAT PUMP DX COOLING COIL, 4497.9, 3.29, 11.22, 11.74, 11.10, 11.0
 DX Cooling Coil AHRI 2023 Standard Rating Information, Coil:Cooling:DX:SingleSpeed, PSZ-AC:4 HEAT PUMP DX COOLING COIL, 4452.0, 3.15, 10.75, 11.21, 10.91, 10.3
 Component Sizing Information, AirLoopHVAC:UnitaryHeatPump:AirToAir, PSZ-AC:4_HEATPUMP, Supply Air Flow Rate [m3/s], 0.28522
 Component Sizing Information, AirLoopHVAC:UnitaryHeatPump:AirToAir, PSZ-AC:4_HEATPUMP, Supply Air Flow Rate During Heating Operation [m3/s], 0.28522
 Component Sizing Information, AirLoopHVAC:UnitaryHeatPump:AirToAir, PSZ-AC:4_HEATPUMP, Supply Air Flow Rate During Cooling Operation [m3/s], 0.28522
 Component Sizing Information, AirLoopHVAC:UnitaryHeatPump:AirToAir, PSZ-AC:4_HEATPUMP, Supply Air Flow Rate When No Cooling or Heating is Needed [m3/s], 0.28522
 Component Sizing Information, AirLoopHVAC:UnitaryHeatPump:AirToAir, PSZ-AC:4_HEATPUMP, Nominal Heating Capacity [W], 4721.48135
 Component Sizing Information, AirLoopHVAC:UnitaryHeatPump:AirToAir, PSZ-AC:4_HEATPUMP, Nominal Cooling Capacity [W], 4721.48135
 Component Sizing Information, AirLoopHVAC:UnitaryHeatPump:AirToAir, PSZ-AC:4_HEATPUMP, Maximum Supply Air Temperature from Supplemental Heater [C], 40.00000
 Component Sizing Information, AirLoopHVAC:UnitaryHeatPump:AirToAir, PSZ-AC:4_HEATPUMP, Supplemental Heating Coil Nominal Capacity [W], 5173.31333
 Component Sizing Information, AirLoopHVAC:UnitaryHeatPump:AirToAir, PSZ-AC:4_HEATPUMP, Fraction of Supply Air Flow That Goes Through the Controlling Zone, 1.00000
 Component Sizing Information, Fan:OnOff, PSZ-AC:4 FAN, Design Size Maximum Flow Rate [m3/s], 0.28522
 Component Sizing Information, Fan:OnOff, PSZ-AC:4 FAN, Design Electric Power Consumption [W], 319.48244
 Component Sizing Information, Coil:Heating:DX:SingleSpeed, PSZ-AC:4 HEAT PUMP DX HEATING COIL, Design Size Rated Air Flow Rate [m3/s], 0.28522
 Component Sizing Information, Coil:Heating:DX:SingleSpeed, PSZ-AC:4 HEAT PUMP DX HEATING COIL, Design Size Gross Rated Heating Capacity [W], 4721.48135
 DX Heating Coil Standard Rating Information, Coil:Heating:DX:SingleSpeed, PSZ-AC:4 HEAT PUMP DX HEATING COIL, 4947.8, 2755.6, 7.34, 4
 DX Heating Coil AHRI 2023 Standard Rating Information, Coil:Heating:DX:SingleSpeed, PSZ-AC:4 HEAT PUMP DX HEATING COIL, 4993.7, 2801.6, 6.63, 4
 Component Sizing Information, Coil:Heating:Fuel, PSZ-AC:4 HEAT PUMP DX SUPP HEATING COIL, Design Size Nominal Capacity [W], 5173.31333
 Component Sizing Information, Controller:OutdoorAir, PSZ-AC:5_OA_CONTROLLER, Maximum Outdoor Air Flow Rate [m3/s], 0.30525
 Component Sizing Information, Controller:OutdoorAir, PSZ-AC:5_OA_CONTROLLER, Minimum Outdoor Air Flow Rate [m3/s], 2.90583E-002
 Component Sizing Information, Coil:Cooling:DX:SingleSpeed, PSZ-AC:5 HEAT PUMP DX COOLING COIL, Design Size Rated Air Flow Rate [m3/s], 0.30525
 Component Sizing Information, Coil:Cooling:DX:SingleSpeed, PSZ-AC:5 HEAT PUMP DX COOLING COIL, Design Size Gross Rated Total Cooling Capacity [W], 5053.04410
 Component Sizing Information, Coil:Cooling:DX:SingleSpeed, PSZ-AC:5 HEAT PUMP DX COOLING COIL, Design Size Gross Rated Sensible Heat Ratio, 0.85985
 DX Cooling Coil Standard Rating Information, Coil:Cooling:DX:SingleSpeed, PSZ-AC:5 HEAT PUMP DX COOLING COIL, 4813.8, 3.29, 11.22, 11.74, 11.10, 11.0
 DX Cooling Coil AHRI 2023 Standard Rating Information, Coil:Cooling:DX:SingleSpeed, PSZ-AC:5 HEAT PUMP DX COOLING COIL, 4764.6, 3.15, 10.75, 11.21, 10.91, 10.3
 Component Sizing Information, AirLoopHVAC:UnitaryHeatPump:AirToAir, PSZ-AC:5_HEATPUMP, Supply Air Flow Rate [m3/s], 0.30525
 Component Sizing Information, AirLoopHVAC:UnitaryHeatPump:AirToAir, PSZ-AC:5_HEATPUMP, Supply Air Flow Rate During Heating Operation [m3/s], 0.30525
 Component Sizing Information, AirLoopHVAC:UnitaryHeatPump:AirToAir, PSZ-AC:5_HEATPUMP, Supply Air Flow Rate During Cooling Operation [m3/s], 0.30525
 Component Sizing Information, AirLoopHVAC:UnitaryHeatPump:AirToAir, PSZ-AC:5_HEATPUMP, Supply Air Flow Rate When No Cooling or Heating is Needed [m3/s], 0.30525
 Component Sizing Information, AirLoopHVAC:UnitaryHeatPump:AirToAir, PSZ-AC:5_HEATPUMP, Nominal Heating Capacity [W], 5053.04410
 Component Sizing Information, AirLoopHVAC:UnitaryHeatPump:AirToAir, PSZ-AC:5_HEATPUMP, Nominal Cooling Capacity [W], 5053.04410
 Component Sizing Information, AirLoopHVAC:UnitaryHeatPump:AirToAir, PSZ-AC:5_HEATPUMP, Maximum Supply Air Temperature from Supplemental Heater [C], 40.00000
 Component Sizing Information, AirLoopHVAC:UnitaryHeatPump:AirToAir, PSZ-AC:5_HEATPUMP, Supplemental Heating Coil Nominal Capacity [W], 3167.74766
 Component Sizing Information, AirLoopHVAC:UnitaryHeatPump:AirToAir, PSZ-AC:5_HEATPUMP, Fraction of Supply Air Flow That Goes Through the Controlling Zone, 1.00000
 Component Sizing Information, Fan:OnOff, PSZ-AC:5 FAN, Design Size Maximum Flow Rate [m3/s], 0.30525
 Component Sizing Information, Fan:OnOff, PSZ-AC:5 FAN, Design Electric Power Consumption [W], 341.91788
 Component Sizing Information, Coil:Heating:DX:SingleSpeed, PSZ-AC:5 HEAT PUMP DX HEATING COIL, Design Size Rated Air Flow Rate [m3/s], 0.30525
 Component Sizing Information, Coil:Heating:DX:SingleSpeed, PSZ-AC:5 HEAT PUMP DX HEATING COIL, Design Size Gross Rated Heating Capacity [W], 5053.04410
 DX Heating Coil Standard Rating Information, Coil:Heating:DX:SingleSpeed, PSZ-AC:5 HEAT PUMP DX HEATING COIL, 5295.2, 2949.1, 7.32, 4
 DX Heating Coil AHRI 2023 Standard Rating Information, Coil:Heating:DX:SingleSpeed, PSZ-AC:5 HEAT PUMP DX HEATING COIL, 5344.4, 2998.3, 6.63, 4
 Component Sizing Information, Coil:Heating:Fuel, PSZ-AC:5 HEAT PUMP DX SUPP HEATING COIL, Design Size Nominal Capacity [W], 3167.74766
Water Heater Information,WaterHeater:Mixed,SHWSYS1 WATER HEATER,0.1514,11722.8,1.754,0.5079
 Component Sizing Information, PlantLoop, SHWSYS1, Maximum Loop Flow Rate [m3/s], 4.04800E-006
 Component Sizing Information, PlantLoop, SHWSYS1, Plant Loop Volume [m3], 4.85760E-004
 Component Sizing Information, PlantLoop, SHWSYS1, Design Supply Temperature [C], 48.89000
 Component Sizing Information, PlantLoop, SHWSYS1, Design Return Temperature [C], 43.89000
 Component Sizing Information, PlantLoop, SHWSYS1, Sizing Option, NonCoincident
 Component Sizing Information, PlantLoop, SHWSYS1, Minimum Loop Flow Rate [m3/s], 0.00000
 Component Sizing Information, PlantLoop, SHWSYS1, Design Capacity [W], 84.95744
 Component Sizing Information, Pump:ConstantSpeed, SHWSYS1 PUMP, Design Flow Rate [m3/s], 4.04800E-006
 Component Sizing Information, Pump:ConstantSpeed, SHWSYS1 PUMP, Design Power Consumption [W], 1.72991E-008
! <Environment>,Environment Name,Environment Type, Start Date, End Date, Start DayOfWeek, Duration {#days}, Source:Start DayOfWeek,  Use Daylight Saving, Use Holidays, Apply Weekend Holiday Rule,  Use Rain Values, Use Snow Values, Sky Temperature Model
! <Environment:Special Days>, Special Day Name, Special Day Type, Source, Start Date, Duration {#days}
! <Environment:Daylight Saving>, Daylight Saving Indicator, Source, Start Date, End Date
! <Environment:WarmupDays>, NumberofWarmupDays
Environment,RUNPERIOD 1,WeatherFileRunPeriod,01/01/2017,12/31/2017,Sunday,365,Use RunPeriod Specified Day,No,No,No,Yes,Yes,Clark and Allen
Environment:Daylight Saving,Yes,InputFile,03/12,11/05
Environment:Special Days,NEW YEARS DAY,Holiday,InputFile,01/01,  1
Environment:Special Days,VETERANS DAY,Holiday,InputFile,11/11,  1
Environment:Special Days,CHRISTMAS,Holiday,InputFile,12/25,  1
Environment:Special Days,INDEPENDENCE DAY,Holiday,InputFile,07/04,  1
Environment:Special Days,MLK DAY,Holiday,InputFile,01/16,  1
Environment:Special Days,PRESIDENTS DAY,Holiday,InputFile,02/20,  1
Environment:Special Days,MEMORIAL DAY,Holiday,InputFile,05/29,  1
Environment:Special Days,LABOR DAY,Holiday,InputFile,09/04,  1
Environment:Special Days,COLUMBUS DAY,Holiday,InputFile,10/09,  1
Environment:Special Days,THANKSGIVING,Holiday,InputFile,11/23,  1
Environment:WarmupDays, 15
! <Tabular Report>,Style,Unit Conversion, Format Reals
Tabular Report,HTML,NONE,Yes
! <Warmup Convergence Information>,Zone Name,Environment Type/Name,Average Warmup Temperature Difference {deltaC},Std Dev Warmup Temperature Difference {deltaC},Max Temperature Pass/Fail Convergence,Min Temperature Pass/Fail Convergence,Average Warmup Load Difference {W},Std Dev Warmup Load Difference {W},Heating Load Pass/Fail Convergence,Cooling Load Pass/Fail Convergence
 Warmup Convergence Information,CORE_ZN,RunPeriod: RUNPERIOD 1,2.7566935954E-002,4.2581038569E-002,Pass,Pass,0.0000000000,0.0000000000,Pass,Pass
 Warmup Convergence Information,PERIMETER_ZN_1,RunPeriod: RUNPERIOD 1,0.2820215953,0.2518579691,Pass,Pass,0.5049344143,0.9764773906,Pass,Pass
 Warmup Convergence Information,PERIMETER_ZN_2,RunPeriod: RUNPERIOD 1,0.5722340294,0.3549849305,Pass,Pass,0.8407460535,1.0036544787,Pass,Pass
 Warmup Convergence Information,PERIMETER_ZN_3,RunPeriod: RUNPERIOD 1,0.6323041730,0.3829867863,Pass,Pass,0.8254013322,0.8398917382,Pass,Pass
 Warmup Convergence Information,PERIMETER_ZN_4,RunPeriod: RUNPERIOD 1,0.5359557385,0.3600099524,Pass,Pass,0.8157467895,1.2485845984,Pass,Pass
 Warmup Convergence Information,ATTIC,RunPeriod: RUNPERIOD 1,0.7732842915,0.6593150115,Pass,Pass,0.0000000000,0.0000000000,Pass,Pass
! <Program Control Information:Threads/Parallel Sims>, Threading Supported,Maximum Number of Threads, Env Set Threads (OMP_NUM_THREADS), EP Env Set Threads (EP_OMP_NUM_THREADS), IDF Set Threads, Number of Threads Used (Interior Radiant Exchange), Number Nominal Surfaces, Number Parallel Sims
Program Control Information:Threads/Parallel Sims, No,1, N/A, N/A, N/A, N/A, N/A, N/A
End of Data
